$TITLE   = MSC.NASTRAN JOB CREATED ON 20-FEB-15 AT 15:37:03                    1
$SUBTITLE=DEFAULT                                                              2
$LABEL   =                                                                     3
$EIGENVECTOR                                                                   4
$REAL OUTPUT                                                                   5
$SUBCASE ID =           1                                                      6
$EIGENVALUE =  3.0457354E+00  MODE =     1                                     7
   7710001       G      1.555081E+00     -6.918408E-01      6.552807E-01       8
-CONT-                 -3.673010E-02     -5.051720E-06      8.713194E-02       9
   7710002       G      1.474131E+00     -3.718112E-02      6.211200E-01      10
-CONT-                 -3.680184E-02      3.186825E-05      8.714042E-02      11
   7710003       G      2.524521E+00     -2.964757E-01      1.064478E+00      12
-CONT-                 -3.684703E-02     -5.093916E-05      8.714365E-02      13
   7710004       G      2.361240E+00      9.340078E-02      9.956132E-01      14
-CONT-                 -3.683782E-02     -3.154631E-05      8.713560E-02      15
   7710005       G      3.756662E+00      2.014446E-01      1.587442E+00      16
-CONT-                 -3.705610E-02     -9.545635E-05      8.716042E-02      17
   7710006       G      3.593366E+00      5.914330E-01      1.518395E+00      18
-CONT-                 -3.705198E-02     -7.513193E-05      8.715960E-02      19
   7710007       G      4.968789E+00      6.911842E-01      2.104348E+00      20
-CONT-                 -3.718418E-02     -1.194421E-04      8.717097E-02      21
   7710008       G      4.805480E+00      1.081172E+00      2.035193E+00      22
-CONT-                 -3.718209E-02     -1.081126E-04      8.717061E-02      23
   7710009       G      6.181290E+00      1.181303E+00      2.622735E+00      24
-CONT-                 -3.724722E-02     -1.296148E-04      8.717632E-02      25
   7710010       G      6.017973E+00      1.570971E+00      2.553525E+00      26
-CONT-                 -3.724476E-02     -1.243507E-04      8.717629E-02      27
   7710011       G      7.131002E+00      1.565062E+00      3.029175E+00      28
-CONT-                 -3.726288E-02     -1.295014E-04      8.717783E-02      29
   7710012       G      6.968029E+00      1.954749E+00      2.960090E+00      30
-CONT-                 -3.726083E-02     -1.279618E-04      8.717755E-02      31
   7810001       G     -1.554709E+00     -6.918408E-01     -6.551688E-01      32
-CONT-                 -3.673010E-02      1.058309E-05      8.713195E-02      33
   7810002       G     -1.473761E+00     -3.718113E-02     -6.210505E-01      34
-CONT-                 -3.680178E-02     -2.633152E-05      8.714041E-02      35
   7810003       G     -2.524148E+00     -2.964759E-01     -1.064388E+00      36
-CONT-                 -3.684579E-02      5.626795E-05      8.714358E-02      37
   7810004       G     -2.360869E+00      9.340063E-02     -9.955508E-01      38
-CONT-                 -3.683729E-02      3.704505E-05      8.713558E-02      39
   7810005       G     -3.756288E+00      2.014439E-01     -1.587372E+00      40
-CONT-                 -3.705522E-02      1.010728E-04      8.716032E-02      41
   7810006       G     -3.592995E+00      5.914322E-01     -1.518353E+00      42
-CONT-                 -3.705111E-02      8.074969E-05      8.715951E-02      43
   7810007       G     -4.968413E+00      6.911828E-01     -2.104296E+00      44
-CONT-                 -3.718305E-02      1.248428E-04      8.717084E-02      45
   7810008       G     -4.805107E+00      1.081170E+00     -2.035168E+00      46
-CONT-                 -3.718095E-02      1.136244E-04      8.717049E-02      47
   7810009       G     -6.180913E+00      1.181301E+00     -2.622698E+00      48
-CONT-                 -3.724606E-02      1.350820E-04      8.717619E-02      49
   7810010       G     -6.017598E+00      1.570968E+00     -2.553515E+00      50
-CONT-                 -3.724361E-02      1.298180E-04      8.717617E-02      51
   7810011       G     -7.130623E+00      1.565059E+00     -3.029149E+00      52
-CONT-                 -3.726173E-02      1.349688E-04      8.717770E-02      53
   7810012       G     -6.967653E+00      1.954747E+00     -2.960092E+00      54
-CONT-                 -3.725968E-02      1.334293E-04      8.717743E-02      55
   7910007       G      1.899983E-04     -1.511580E+00      8.376545E-05      56
-CONT-                 -3.671785E-02      2.772170E-06      8.712804E-02      57
   7910008       G      1.838169E-04      6.304340E-01      1.300046E-05      58
-CONT-                 -3.670762E-02      2.772506E-06      8.712705E-02      59
   7910009       G     -8.275316E-01     -1.006512E+00     -3.486892E-01      60
-CONT-                 -3.671471E-02      2.571524E-06      8.712745E-02      61
   7910010       G     -8.275365E-01      6.072656E-01     -3.487398E-01      62
-CONT-                 -3.671377E-02      4.639309E-06      8.712847E-02      63
   7910011       G      8.279053E-01     -1.006512E+00      3.488220E-01      64
-CONT-                 -3.671471E-02      2.972146E-06      8.712745E-02      65
   7910012       G      8.279006E-01      6.072656E-01      3.487658E-01      66
-CONT-                 -3.671376E-02      9.049602E-07      8.712847E-02      67
$TITLE   = MSC.NASTRAN JOB CREATED ON 20-FEB-15 AT 15:37:03                   68
$SUBTITLE=DEFAULT                                                             69
$LABEL   =                                                                    70
$EIGENVECTOR                                                                  71
$REAL OUTPUT                                                                  72
$SUBCASE ID =           1                                                     73
$EIGENVALUE =  3.5605845E+00  MODE =     2                                    74
   7710001       G      6.378053E-01     -2.566317E-01     -1.627985E+00      75
-CONT-                  9.125177E-02      4.195976E-06      3.572868E-02      76
   7710002       G      6.046197E-01      4.022143E-02     -1.543089E+00      77
-CONT-                  9.138818E-02     -4.923408E-05      3.571388E-02      78
   7710003       G      1.035397E+00     -1.050137E-01     -2.644612E+00      79
-CONT-                  9.156308E-02      1.245079E-04      3.572293E-02      80
   7710004       G      9.683816E-01      9.592253E-02     -2.473460E+00      81
-CONT-                  9.155021E-02      6.968159E-05      3.573231E-02      82
   7710005       G      1.540544E+00      9.867310E-02     -3.944595E+00      83
-CONT-                  9.212906E-02      2.638055E-04      3.572223E-02      84
   7710006       G      1.473490E+00      2.997949E-01     -3.773051E+00      85
-CONT-                  9.212360E-02      2.131287E-04      3.572160E-02      86
   7710007       G      2.037329E+00      2.991993E-01     -5.230133E+00      87
-CONT-                  9.246910E-02      3.477286E-04      3.572009E-02      88
   7710008       G      1.970253E+00      5.004478E-01     -5.058396E+00      89
-CONT-                  9.246926E-02      3.221790E-04      3.571910E-02      90
   7710009       G      2.534172E+00      4.999216E-01     -6.519627E+00      91
-CONT-                  9.262588E-02      3.949305E-04      3.571937E-02      92
   7710010       G      2.467085E+00      7.010148E-01     -6.347858E+00      93
-CONT-                  9.262671E-02      3.877734E-04      3.571758E-02      94
   7710011       G      2.923294E+00      6.571411E-01     -7.530673E+00      95
-CONT-                  9.265545E-02      4.128412E-04      3.571805E-02      96
   7710012       G      2.856344E+00      8.581972E-01     -7.359317E+00      97
-CONT-                  9.265908E-02      4.144111E-04      3.571725E-02      98
   7810001       G     -6.376113E-01     -2.566317E-01      1.627555E+00      99
-CONT-                  9.125179E-02     -3.337378E-05      3.572868E-02     100
   7810002       G     -6.044179E-01      4.022145E-02      1.542882E+00     101
-CONT-                  9.138806E-02      2.004017E-05      3.571389E-02     102
   7810003       G     -1.035206E+00     -1.050133E-01      2.644307E+00     103
-CONT-                  9.156052E-02     -1.532586E-04      3.572311E-02     104
   7810004       G     -9.681793E-01      9.592284E-02      2.473294E+00     105
-CONT-                  9.154909E-02     -9.877931E-05      3.573236E-02     106
   7810005       G     -1.540356E+00      9.867449E-02      3.944432E+00     107
-CONT-                  9.212725E-02     -2.931613E-04      3.572244E-02     108
   7810006       G     -1.473291E+00      2.997965E-01      3.773027E+00     109
-CONT-                  9.212180E-02     -2.424914E-04      3.572181E-02     110
   7810007       G     -2.037144E+00      2.992024E-01      5.230105E+00     111
-CONT-                  9.246653E-02     -3.765144E-04      3.572031E-02     112
   7810008       G     -1.970056E+00      5.004509E-01      5.058507E+00     113
-CONT-                  9.246668E-02     -3.512795E-04      3.571931E-02     114
   7810009       G     -2.533990E+00      4.999259E-01      6.519726E+00     115
-CONT-                  9.262326E-02     -4.239130E-04      3.571957E-02     116
   7810010       G     -2.466891E+00      7.010190E-01      6.348097E+00     117
-CONT-                  9.262410E-02     -4.167557E-04      3.571778E-02     118
   7810011       G     -2.923114E+00      6.571462E-01      7.530871E+00     119
-CONT-                  9.265283E-02     -4.418248E-04      3.571824E-02     120
   7810012       G     -2.856153E+00      8.582022E-01      7.359654E+00     121
-CONT-                  9.265647E-02     -4.433949E-04      3.571744E-02     122
   7910007       G      7.549183E-05     -7.490425E-01     -3.618786E-04     123
-CONT-                  9.121609E-02     -1.460252E-05      3.573424E-02     124
   7910008       G      1.080490E-04      3.663476E-01      1.085924E-05     125
-CONT-                  9.119628E-02     -1.460329E-05      3.573496E-02     126
   7910009       G     -3.393777E-01     -4.210689E-01      8.661367E-01     127
-CONT-                  9.120079E-02     -1.055936E-05      3.573525E-02     128
   7910010       G     -3.393499E-01      4.239070E-01      8.664178E-01     129
-CONT-                  9.121493E-02     -1.925384E-05      3.573096E-02     130
   7910011       G      3.395619E-01     -4.210689E-01     -8.666772E-01     131
-CONT-                  9.120079E-02     -1.864476E-05      3.573525E-02     132
   7910012       G      3.395844E-01      4.239070E-01     -8.663961E-01     133
-CONT-                  9.121493E-02     -9.952156E-06      3.573096E-02     134
$TITLE   = MSC.NASTRAN JOB CREATED ON 20-FEB-15 AT 15:37:03                  135
$SUBTITLE=DEFAULT                                                            136
$LABEL   =                                                                   137
$EIGENVECTOR                                                                 138
$REAL OUTPUT                                                                 139
$SUBCASE ID =           1                                                    140
$EIGENVALUE =  1.6082142E+01  MODE =     3                                   141
   7710001       G      3.143653E+00      2.599309E-04     -1.494688E-01     142
-CONT-                 -1.714696E-05     -1.881170E-02     -2.615755E-05     143
   7710002       G      3.148696E+00      6.989020E-05     -6.108568E-03     144
-CONT-                 -1.035349E-04     -1.876180E-02     -1.530122E-05     145
   7710003       G      3.141610E+00      1.920765E-04     -6.427821E-02     146
-CONT-                 -1.078245E-04     -1.885134E-02     -3.166962E-06     147
   7710004       G      3.148881E+00      1.153788E-04      2.289912E-02     148
-CONT-                 -9.653806E-05     -1.883835E-02     -1.563205E-05     149
   7710005       G      3.141834E+00      3.210592E-04      4.621187E-02     150
-CONT-                 -2.657112E-04     -1.888099E-02      3.192186E-05     151
   7710006       G      3.149048E+00      3.540447E-04      1.332469E-01     152
-CONT-                 -2.612589E-04     -1.886449E-02      3.006350E-05     153
   7710007       G      3.142453E+00      5.915485E-04      1.567914E-01     154
-CONT-                 -3.649571E-04     -1.889475E-02      5.170674E-05     155
   7710008       G      3.149632E+00      6.837027E-04      2.437198E-01     156
-CONT-                 -3.619742E-04     -1.888492E-02      5.069741E-05     157
   7710009       G      3.143251E+00      9.246689E-04      2.684864E-01     158
-CONT-                 -4.145519E-04     -1.889691E-02      6.100283E-05     159
   7710010       G      3.150399E+00      1.043253E-03      3.552698E-01     160
-CONT-                 -4.109814E-04     -1.889149E-02      6.036096E-05     161
   7710011       G      3.143936E+00      1.201288E-03      3.562492E-01     162
-CONT-                 -4.259691E-04     -1.889080E-02      6.274311E-05     163
   7710012       G      3.151066E+00      1.326137E-03      4.429911E-01     164
-CONT-                 -4.224447E-04     -1.888924E-02      6.227850E-05     165
   7810001       G      3.144810E+00      2.869964E-04     -1.496280E-01     166
-CONT-                  8.220894E-06     -1.881168E-02     -3.869099E-05     167
   7810002       G      3.149793E+00     -1.985592E-05     -6.259381E-03     168
-CONT-                  9.455614E-05     -1.876176E-02     -4.954286E-05     169
   7810003       G      3.143489E+00      6.449103E-05     -6.453993E-02     170
-CONT-                  9.747697E-05     -1.885105E-02     -6.163271E-05     171
   7810004       G      3.150639E+00     -1.631595E-04      2.265559E-02     172
-CONT-                  8.690212E-05     -1.883829E-02     -4.920995E-05     173
   7810005       G      3.144629E+00     -4.344693E-04      4.580669E-02     174
-CONT-                  2.554881E-04     -1.888094E-02     -9.674153E-05     175
   7810006       G      3.151721E+00     -7.720075E-04      1.328607E-01     176
-CONT-                  2.510319E-04     -1.886446E-02     -9.488402E-05     177
   7810007       G      3.146149E+00     -1.069041E-03      1.562416E-01     178
-CONT-                  3.544409E-04     -1.889447E-02     -1.165129E-04     179
   7810008       G      3.153207E+00     -1.465780E-03      2.431887E-01     180
-CONT-                  3.514388E-04     -1.888473E-02     -1.154964E-04     181
   7810009       G      3.147849E+00     -1.766450E-03      2.677883E-01     182
-CONT-                  4.039686E-04     -1.889663E-02     -1.258200E-04     183
   7810010       G      3.154875E+00     -2.189446E-03      3.545903E-01     184
-CONT-                  4.003890E-04     -1.889121E-02     -1.251753E-04     185
   7810011       G      3.149240E+00     -2.328393E-03      3.554345E-01     186
-CONT-                  4.153884E-04     -1.889050E-02     -1.275630E-04     187
   7810012       G      3.156249E+00     -2.757667E-03      4.421948E-01     188
-CONT-                  4.118518E-04     -1.888893E-02     -1.270962E-04     189
   7910007       G      3.116558E+00      6.051037E-04     -3.381488E-01     190
-CONT-                 -4.626167E-06     -1.880224E-02     -3.243172E-05     191
   7910008       G      3.158486E+00     -2.323338E-04      1.417966E-01     192
-CONT-                 -4.460254E-06     -1.879251E-02     -3.242056E-05     193
   7910009       G      3.138250E+00      4.018922E-04     -2.201955E-01     194
-CONT-                  3.533018E-06     -1.880572E-02     -3.184050E-05     195
   7910010       G      3.170653E+00     -2.489008E-04      1.417221E-01     196
-CONT-                 -1.371489E-06     -1.880894E-02     -3.431860E-05     197
   7910011       G      3.137634E+00      3.912605E-04     -2.201108E-01     198
-CONT-                 -1.243531E-05     -1.880571E-02     -3.300157E-05     199
   7910012       G      3.170037E+00     -2.214052E-04      1.418068E-01     200
-CONT-                 -7.550566E-06     -1.880894E-02     -3.051978E-05     201
$TITLE   = MSC.NASTRAN JOB CREATED ON 20-FEB-15 AT 15:37:03                  202
$SUBTITLE=DEFAULT                                                            203
$LABEL   =                                                                   204
$EIGENVECTOR                                                                 205
$REAL OUTPUT                                                                 206
$SUBCASE ID =           1                                                    207
$EIGENVALUE =  2.0685745E+01  MODE =     4                                   208
   7710001       G     -1.723953E-02     -3.163779E+00     -6.432725E-02     209
-CONT-                  3.612100E-03      3.063385E-06     -9.707510E-04     210
   7710002       G     -1.633174E-02     -3.170227E+00     -6.090853E-02     211
-CONT-                  3.693250E-03     -4.011584E-05     -9.808594E-04     212
   7710003       G     -2.806628E-02     -3.168559E+00     -1.049854E-01     213
-CONT-                  3.713426E-03      4.433237E-05     -9.863671E-04     214
   7710004       G     -2.624000E-02     -3.171687E+00     -9.819100E-02     215
-CONT-                  3.703207E-03      2.836069E-05     -9.761996E-04     216
   7710005       G     -4.217524E-02     -3.174354E+00     -1.592478E-01     217
-CONT-                  3.898771E-03      8.176932E-05     -1.010024E-03     218
   7710006       G     -4.032298E-02     -3.177529E+00     -1.522778E-01     219
-CONT-                  3.894087E-03      6.251925E-05     -1.008648E-03     220
   7710007       G     -5.632797E-02     -3.180136E+00     -2.149458E-01     221
-CONT-                  4.025018E-03      1.034739E-04     -1.024672E-03     222
   7710008       G     -5.445327E-02     -3.183334E+00     -2.078547E-01     223
-CONT-                  4.021899E-03      9.065947E-05     -1.023833E-03     224
   7710009       G     -7.063932E-02     -3.185962E+00     -2.721269E-01     225
-CONT-                  4.105387E-03      1.154856E-04     -1.032827E-03     226
   7710010       G     -6.875132E-02     -3.189169E+00     -2.649534E-01     227
-CONT-                  4.100620E-03      1.064330E-04     -1.032365E-03     228
   7710011       G     -8.191343E-02     -3.190536E+00     -3.175628E-01     229
-CONT-                  4.142037E-03      1.185285E-04     -1.035938E-03     230
   7710012       G     -8.002177E-02     -3.193748E+00     -3.103489E-01     231
-CONT-                  4.136522E-03      1.116388E-04     -1.034699E-03     232
   7810001       G      1.727508E-02     -3.163779E+00      6.411532E-02     233
-CONT-                  3.612108E-03     -1.424202E-05     -9.707528E-04     234
   7810002       G      1.637027E-02     -3.170227E+00      6.078204E-02     235
-CONT-                  3.693201E-03      2.893683E-05     -9.808539E-04     236
   7810003       G      2.810068E-02     -3.168559E+00      1.048216E-01     237
-CONT-                  3.712298E-03     -5.533113E-05     -9.863046E-04     238
   7810004       G      2.627876E-02     -3.171687E+00      9.808026E-02     239
-CONT-                  3.702727E-03     -3.951637E-05     -9.761817E-04     240
   7810005       G      4.220828E-02     -3.174353E+00      1.591369E-01     241
-CONT-                  3.897989E-03     -9.303992E-05     -1.009934E-03     242
   7810006       G      4.036053E-02     -3.177529E+00      1.522206E-01     243
-CONT-                  3.893309E-03     -7.378880E-05     -1.008560E-03     244
   7810007       G      5.635971E-02     -3.180134E+00      2.148860E-01     245
-CONT-                  4.024000E-03     -1.145322E-04     -1.024554E-03     246
   7810008       G      5.448945E-02     -3.183333E+00      2.078485E-01     247
-CONT-                  4.020873E-03     -1.018275E-04     -1.023714E-03     248
   7810009       G      7.066940E-02     -3.185960E+00      2.721154E-01     249
-CONT-                  4.104357E-03     -1.266138E-04     -1.032712E-03     250
   7810010       G      6.878589E-02     -3.189167E+00      2.649954E-01     251
-CONT-                  4.099591E-03     -1.175609E-04     -1.032249E-03     252
   7810011       G      8.194226E-02     -3.190534E+00      3.175891E-01     253
-CONT-                  4.141009E-03     -1.296588E-04     -1.035822E-03     254
   7810012       G      8.005508E-02     -3.193746E+00      3.104287E-01     255
-CONT-                  4.135495E-03     -1.227694E-04     -1.034583E-03     256
   7910007       G      9.538532E-06     -3.159355E+00     -1.620700E-04     257
-CONT-                  3.596009E-03     -5.594909E-06     -9.669126E-04     258
   7910008       G      2.201315E-05     -3.176023E+00     -1.925872E-05     259
-CONT-                  3.592173E-03     -5.594720E-06     -9.663671E-04     260
   7910009       G      9.202466E-03     -3.161338E+00      3.402115E-02     261
-CONT-                  3.595676E-03     -5.278755E-06     -9.654450E-04     262
   7910010       G      9.218550E-03     -3.173758E+00      3.413690E-02     263
-CONT-                  3.600324E-03     -4.667448E-06     -9.666536E-04     264
   7910011       G     -9.170663E-03     -3.161338E+00     -3.427506E-02     265
-CONT-                  3.595677E-03     -5.909959E-06     -9.654446E-04     266
   7910012       G     -9.167461E-03     -3.173758E+00     -3.417542E-02     267
-CONT-                  3.600322E-03     -6.522280E-06     -9.666540E-04     268
$TITLE   = MSC.NASTRAN JOB CREATED ON 20-FEB-15 AT 15:37:03                  269
$SUBTITLE=DEFAULT                                                            270
$LABEL   =                                                                   271
$EIGENVECTOR                                                                 272
$REAL OUTPUT                                                                 273
$SUBCASE ID =           1                                                    274
$EIGENVALUE =  3.2913178E+01  MODE =     5                                   275
   7710001       G      1.563461E-02      1.751633E-04      3.190586E+00     276
-CONT-                 -2.213439E-04      8.488393E-03      2.605437E-05     277
   7710002       G      1.330877E-02      3.130222E-04      3.124928E+00     278
-CONT-                 -9.243783E-04      8.760016E-03      1.045294E-04     279
   7710003       G      1.647384E-02      1.278203E-03      3.161349E+00     280
-CONT-                 -1.706398E-03      7.912674E-03      7.266657E-05     281
   7710004       G      1.339065E-02      8.993542E-04      3.120817E+00     282
-CONT-                 -1.639630E-03      8.163845E-03      2.002999E-05     283
   7710005       G      1.732638E-02      3.387619E-03      3.162067E+00     284
-CONT-                 -4.284536E-03      7.291083E-03      1.063649E-04     285
   7710006       G      1.436554E-02      2.223503E-03      3.119697E+00     286
-CONT-                 -4.257232E-03      7.517205E-03      1.080234E-04     287
   7710007       G      1.882246E-02      4.986742E-03      3.193324E+00     288
-CONT-                 -5.757418E-03      6.943638E-03      1.331310E-04     289
   7710008       G      1.591771E-02      3.396601E-03      3.150062E+00     290
-CONT-                 -5.754443E-03      7.053819E-03      1.364176E-04     291
   7710009       G      2.070029E-02      6.182674E-03      3.240105E+00     292
-CONT-                 -6.408332E-03      6.764489E-03      1.447645E-04     293
   7710010       G      1.782563E-02      4.417628E-03      3.196674E+00     294
-CONT-                 -6.407366E-03      6.797262E-03      1.509496E-04     295
   7710011       G      2.231672E-02      6.926701E-03      3.281091E+00     296
-CONT-                 -6.529686E-03      6.706107E-03      1.516106E-04     297
   7710012       G      1.945593E-02      5.136618E-03      3.237791E+00     298
-CONT-                 -6.538538E-03      6.702457E-03      1.538835E-04     299
   7810001       G      1.562732E-02     -3.717141E-04      3.191801E+00     300
-CONT-                  2.898126E-04      8.488386E-03     -2.569698E-05     301
   7810002       G      1.330175E-02     -4.880445E-04      3.126081E+00     302
-CONT-                  9.931349E-04      8.760343E-03     -1.041860E-04     303
   7810003       G      1.646102E-02     -1.478681E-03      3.163310E+00     304
-CONT-                  1.764170E-03      7.914038E-03     -7.150451E-05     305
   7810004       G      1.337951E-02     -1.071720E-03      3.122662E+00     306
-CONT-                  1.704465E-03      8.163804E-03     -1.940943E-05     307
   7810005       G      1.729342E-02     -3.583938E-03      3.164933E+00     308
-CONT-                  4.349748E-03      7.288540E-03     -1.050704E-04     309
   7810006       G      1.433608E-02     -2.388694E-03      3.122452E+00     310
-CONT-                  4.322465E-03      7.514974E-03     -1.067372E-04     311
   7810007       G      1.877284E-02     -5.174834E-03      3.197113E+00     312
-CONT-                  5.821682E-03      6.943007E-03     -1.317827E-04     313
   7810008       G      1.587033E-02     -3.554202E-03      3.153738E+00     314
-CONT-                  5.818675E-03      7.052028E-03     -1.351094E-04     315
   7810009       G      2.063264E-02     -6.364327E-03      3.244804E+00     316
-CONT-                  6.473463E-03      6.762740E-03     -1.435235E-04     317
   7810010       G      1.776097E-02     -4.568556E-03      3.201259E+00     318
-CONT-                  6.472494E-03      6.795570E-03     -1.497191E-04     319
   7810011       G      2.223562E-02     -7.103072E-03      3.286509E+00     320
-CONT-                  6.595030E-03      6.704256E-03     -1.503817E-04     321
   7810012       G      1.937784E-02     -5.282250E-03      3.243095E+00     322
-CONT-                  6.603898E-03      6.700601E-03     -1.526583E-04     323
   7910007       G      2.831140E-02     -1.500349E-04      3.276380E+00     324
-CONT-                  3.421208E-05      8.589056E-03      2.223970E-07     325
   7910008       G      9.204375E-03     -6.897361E-05      3.057257E+00     326
-CONT-                  3.400089E-05      8.643248E-03      2.103466E-07     327
   7910009       G      1.853501E-02     -1.436730E-04      3.222736E+00     328
-CONT-                  2.761143E-05      8.609424E-03      1.108395E-05     329
   7910010       G      3.738814E-03     -8.335098E-05      3.057483E+00     330
-CONT-                  1.196760E-04      8.544413E-03     -5.914353E-06     331
   7910011       G      1.853895E-02     -7.655227E-05      3.222090E+00     332
-CONT-                  4.035854E-05      8.609379E-03     -1.065774E-05     333
   7910012       G      3.742741E-03     -1.169732E-05      3.056836E+00     334
-CONT-                 -5.152248E-05      8.544443E-03      6.323422E-06     335
$TITLE   = MSC.NASTRAN JOB CREATED ON 20-FEB-15 AT 15:37:03                  336
$SUBTITLE=DEFAULT                                                            337
$LABEL   =                                                                   338
$EIGENVECTOR                                                                 339
$REAL OUTPUT                                                                 340
$SUBCASE ID =           1                                                    341
$EIGENVALUE =  3.8436844E+01  MODE =     6                                   342
   7710001       G      4.848084E-01     -5.538788E-04      2.126049E+00     343
-CONT-                  4.420202E-04      2.762978E-01     -4.052222E-05     344
   7710002       G      4.110921E-01     -7.391656E-04      2.083048E-02     345
-CONT-                  1.704782E-03      2.757819E-01     -1.773044E-04     346
   7710003       G      5.116258E-01     -2.564956E-03      8.670138E-01     347
-CONT-                  3.191829E-03      2.774085E-01     -1.187187E-04     348
   7710004       G      4.047645E-01     -1.780501E-03     -4.120933E-01     349
-CONT-                  3.094354E-03      2.769222E-01     -2.099500E-05     350
   7710005       G      5.104856E-01     -6.621111E-03     -8.060561E-01     351
-CONT-                  8.369806E-03      2.787545E-01     -1.724387E-04     352
   7710006       G      4.034849E-01     -4.186373E-03     -2.082147E+00     353
-CONT-                  8.334636E-03      2.782902E-01     -1.752948E-04     354
   7710007       G      5.080000E-01     -9.792861E-03     -2.516446E+00     355
-CONT-                  1.163850E-02      2.796252E-01     -2.215225E-04     356
   7710008       G      4.007811E-01     -6.366252E-03     -3.790927E+00     357
-CONT-                  1.165279E-02      2.793815E-01     -2.295323E-04     358
   7710009       G      5.049301E-01     -1.212589E-02     -4.264502E+00     359
-CONT-                  1.323636E-02      2.801579E-01     -2.431260E-04     360
   7710010       G      3.977986E-01     -8.246501E-03     -5.537762E+00     361
-CONT-                  1.325425E-02      2.800886E-01     -2.610639E-04     362
   7710011       G      5.021891E-01     -1.348775E-02     -5.644669E+00     363
-CONT-                  1.356747E-02      2.803825E-01     -2.603815E-04     364
   7710012       G      3.951386E-01     -9.533572E-03     -6.918550E+00     365
-CONT-                  1.361329E-02      2.804003E-01     -2.687451E-04     366
   7810001       G      4.846526E-01      3.217350E-04      2.127613E+00     367
-CONT-                 -3.540621E-04      2.762972E-01      4.919958E-05     368
   7810002       G      4.109443E-01      5.957592E-04      2.230964E-02     369
-CONT-                 -1.613555E-03      2.757824E-01      1.855801E-04     370
   7810003       G      5.113747E-01      2.356097E-03      8.696248E-01     371
-CONT-                 -3.076654E-03      2.774025E-01      1.255091E-04     372
   7810004       G      4.045294E-01      1.647912E-03     -4.096734E-01     373
-CONT-                 -2.991967E-03      2.769201E-01      2.921643E-05     374
   7810005       G      5.101419E-01      6.447097E-03     -8.018343E-01     375
-CONT-                 -8.253410E-03      2.787522E-01      1.789799E-04     376
   7810006       G      4.031544E-01      4.087452E-03     -2.078134E+00     377
-CONT-                 -8.218486E-03      2.782887E-01      1.818461E-04     378
   7810007       G      5.075622E-01      9.646811E-03     -2.510511E+00     379
-CONT-                 -1.150999E-02      2.796161E-01      2.277725E-04     380
   7810008       G      4.003599E-01      6.299795E-03     -3.785202E+00     381
-CONT-                 -1.152424E-02      2.793759E-01      2.358680E-04     382
   7810009       G      5.044037E-01      1.201457E-02     -4.256717E+00     383
-CONT-                 -1.310526E-02      2.801502E-01      2.495586E-04     384
   7810010       G      3.972871E-01      8.215262E-03     -5.530187E+00     385
-CONT-                 -1.312315E-02      2.800810E-01      2.674766E-04     386
   7810011       G      5.015927E-01      1.340439E-02     -5.635418E+00     387
-CONT-                 -1.343593E-02      2.803745E-01      2.667916E-04     388
   7810012       G      3.945573E-01      9.530327E-03     -6.909508E+00     389
-CONT-                 -1.348172E-02      2.803923E-01      2.751473E-04     390
   7910007       G      8.907116E-01     -2.238596E-04      4.897024E+00     391
-CONT-                  4.395663E-05      2.761104E-01      4.371474E-06     392
   7910008       G      2.750741E-01     -1.529250E-05     -2.150573E+00     393
-CONT-                  4.377711E-05      2.760440E-01      4.341812E-06     394
   7910009       G      5.766750E-01     -9.189065E-05      3.164737E+00     395
-CONT-                  5.404608E-05      2.760878E-01     -1.826930E-05     396
   7910010       G      1.007965E-01      6.651526E-05     -2.150052E+00     397
-CONT-                 -1.106500E-04      2.761490E-01      1.797213E-05     398
   7910011       G      5.767577E-01     -2.017971E-04      3.163906E+00     399
-CONT-                  3.339577E-05      2.760877E-01      2.701407E-05     400
   7910012       G      1.008792E-01     -4.192080E-05     -2.150883E+00     401
-CONT-                  1.983125E-04      2.761490E-01     -9.300185E-06     402
$TITLE   = MSC.NASTRAN JOB CREATED ON 20-FEB-15 AT 15:37:03                  403
$SUBTITLE=DEFAULT                                                            404
$LABEL   =                                                                   405
$EIGENVECTOR                                                                 406
$REAL OUTPUT                                                                 407
$SUBCASE ID =           1                                                    408
$EIGENVALUE =  1.3191182E+03  MODE =     7                                   409
   7710001       G      3.044478E-01      9.413076E-03      3.894717E-01     410
-CONT-                 -9.448330E-03      3.504173E-01      1.169620E-03     411
   7710002       G      2.074416E-01      1.577331E-02     -2.327355E+00     412
-CONT-                 -4.022924E-02      3.650175E-01      4.595826E-03     413
   7710003       G      3.404523E-01      5.961241E-02     -7.900665E-01     414
-CONT-                 -7.828135E-02      3.249741E-01      3.753040E-03     415
   7710004       G      2.132506E-01      4.282034E-02     -2.475788E+00     416
-CONT-                 -7.324728E-02      3.380327E-01      9.471755E-04     417
   7710005       G      3.931513E-01      1.730161E-01     -4.139423E-01     418
-CONT-                 -2.170033E-01      2.951783E-01      6.549116E-03     419
   7710006       G      2.704338E-01      1.183279E-01     -2.221962E+00     420
-CONT-                 -2.142268E-01      3.095913E-01      6.374674E-03     421
   7710007       G      4.906189E-01      2.748885E-01      1.734621E+00     422
-CONT-                 -3.125952E-01      2.756136E-01      8.835665E-03     423
   7710008       G      3.696100E-01      1.953841E-01     -1.493659E-01     424
-CONT-                 -3.114690E-01      2.842293E-01      8.882179E-03     425
   7710009       G      6.191414E-01      3.591298E-01      4.958595E+00     426
-CONT-                 -3.633596E-01      2.646074E-01      1.009007E-02     427
   7710010       G      4.985812E-01      2.677710E-01      3.044448E+00     428
-CONT-                 -3.622755E-01      2.681285E-01      1.044078E-02     429
   7710011       G      7.341717E-01      4.134341E-01      7.836044E+00     430
-CONT-                 -3.754384E-01      2.617170E-01      1.079359E-02     431
   7710012       G      6.133352E-01      3.201482E-01      5.918720E+00     432
-CONT-                 -3.751673E-01      2.622999E-01      1.084450E-02     433
   7810001       G      3.046699E-01     -9.841695E-03      3.934073E-01     434
-CONT-                  9.683931E-03      3.504184E-01     -1.184097E-03     435
   7810002       G      2.076479E-01     -1.622459E-02     -2.323571E+00     436
-CONT-                  4.046988E-02      3.650309E-01     -4.610030E-03     437
   7810003       G      3.407651E-01     -6.006487E-02     -7.843957E-01     438
-CONT-                  7.796614E-02      3.250357E-01     -3.728933E-03     439
   7810004       G      2.135849E-01     -4.325197E-02     -2.469907E+00     440
-CONT-                  7.329389E-02      3.380312E-01     -9.502583E-04     441
   7810005       G      3.929129E-01     -1.734159E-01     -4.085270E-01     442
-CONT-                  2.170211E-01      2.950627E-01     -6.515185E-03     443
   7810006       G      2.703072E-01     -1.185626E-01     -2.216059E+00     444
-CONT-                  2.142481E-01      3.094858E-01     -6.341616E-03     445
   7810007       G      4.899806E-01     -2.749905E-01      1.740414E+00     446
-CONT-                  3.124786E-01      2.756420E-01     -8.795133E-03     447
   7810008       G      3.690019E-01     -1.953734E-01     -1.431889E-01     448
-CONT-                  3.113502E-01      2.841750E-01     -8.843906E-03     449
   7810009       G      6.179768E-01     -3.590493E-01      4.963067E+00     450
-CONT-                  3.632595E-01      2.645726E-01     -1.005505E-02     451
   7810010       G      4.974951E-01     -2.675683E-01      3.049266E+00     452
-CONT-                  3.621757E-01      2.680948E-01     -1.040616E-02     453
   7810011       G      7.326264E-01     -4.132038E-01      7.839618E+00     454
-CONT-                  3.753427E-01      2.616788E-01     -1.075878E-02     455
   7810012       G      6.118694E-01     -3.197940E-01      5.922650E+00     456
-CONT-                  3.750725E-01      2.622611E-01     -1.080987E-02     457
   7910007       G      8.273842E-01     -3.013787E-04      3.912849E+00     458
-CONT-                  1.140831E-04      3.542174E-01     -5.537281E-06     459
   7910008       G      3.895212E-02     -2.129049E-04     -5.126254E+00     460
-CONT-                  1.119097E-04      3.561067E-01     -6.887911E-06     461
   7910009       G      4.243386E-01     -1.281316E-03      1.686549E+00     462
-CONT-                  6.764783E-05      3.548718E-01      4.566126E-04     463
   7910010       G     -1.856874E-01     -1.518337E-03     -5.128849E+00     464
-CONT-                  3.990514E-03      3.557004E-01     -5.475996E-04     465
   7910011       G      4.242256E-01      8.497394E-04      1.684478E+00     466
-CONT-                  1.488298E-04      3.548705E-01     -4.685343E-04     467
   7910012       G     -1.858045E-01      1.229517E-03     -5.130926E+00     468
-CONT-                 -3.766933E-03      3.557012E-01      5.354781E-04     469
$TITLE   = MSC.NASTRAN JOB CREATED ON 20-FEB-15 AT 15:37:03                  470
$SUBTITLE=DEFAULT                                                            471
$LABEL   =                                                                   472
$EIGENVECTOR                                                                 473
$REAL OUTPUT                                                                 474
$SUBCASE ID =           1                                                    475
$EIGENVALUE =  2.6663555E+03  MODE =     8                                   476
   7710001       G      7.999372E-02      3.034525E-01      3.808597E+00     477
-CONT-                 -2.087440E-01      3.500067E-03      3.185314E-03     478
   7710002       G      7.849540E-02      2.718662E-01      3.625729E+00     479
-CONT-                 -1.785760E-01     -1.191144E-02      1.738566E-04     480
   7710003       G      1.325699E-01      2.895138E-01      5.802935E+00     481
-CONT-                 -1.329890E-01      3.516011E-02      6.509564E-04     482
   7710004       G      1.113986E-01      2.460027E-01      5.431674E+00     483
-CONT-                 -1.369658E-01      1.876206E-02      3.945996E-03     484
   7710005       G      1.549641E-01      1.668119E-01      5.954956E+00     485
-CONT-                  6.022180E-02      8.465259E-02     -2.467511E-03     486
   7710006       G      1.224611E-01      1.807657E-01      5.724130E+00     487
-CONT-                  5.773967E-02      6.315339E-02     -2.096085E-03     488
   7710007       G      1.224149E-01      4.143475E-02      3.281953E+00     489
-CONT-                  2.262548E-01      1.277447E-01     -5.628288E-03     490
   7710008       G      8.118895E-02      1.021953E-01      3.149690E+00     491
-CONT-                  2.261449E-01      1.126812E-01     -5.746709E-03     492
   7710009       G      4.279027E-02     -6.026284E-02     -1.463007E+00     493
-CONT-                  3.306145E-01      1.597532E-01     -7.536464E-03     494
   7710010       G     -3.526988E-03      2.729268E-02     -1.569110E+00     495
-CONT-                  3.304231E-01      1.536337E-01     -8.531630E-03     496
   7710011       G     -4.653814E-02     -1.168056E-01     -5.978910E+00     497
-CONT-                  3.589330E-01      1.738975E-01     -9.040760E-03     498
   7710012       G     -9.524524E-02     -2.388315E-02     -6.107617E+00     499
-CONT-                  3.607409E-01      1.735012E-01     -9.407657E-03     500
   7810001       G     -8.063917E-02      3.034309E-01     -3.817899E+00     501
-CONT-                 -2.087362E-01     -4.572220E-03      3.183634E-03     502
   7810002       G     -7.885625E-02      2.718644E-01     -3.626755E+00     503
-CONT-                 -1.785805E-01      1.084233E-02      1.757605E-04     504
   7810003       G     -1.334066E-01      2.895648E-01     -5.808481E+00     505
-CONT-                 -1.335684E-01     -3.618893E-02      7.094332E-04     506
   7810004       G     -1.117589E-01      2.460550E-01     -5.431384E+00     507
-CONT-                 -1.371773E-01     -1.985338E-02      3.960053E-03     508
   7810005       G     -1.567535E-01      1.670320E-01     -5.958164E+00     509
-CONT-                  5.997993E-02     -8.590579E-02     -2.404325E-03     510
   7810006       G     -1.236477E-01      1.811832E-01     -5.721075E+00     511
-CONT-                  5.751440E-02     -6.440190E-02     -2.034927E-03     512
   7810007       G     -1.249920E-01      4.225544E-02     -3.282820E+00     513
-CONT-                  2.257055E-01     -1.287489E-01     -5.547526E-03     514
   7810008       G     -8.329893E-02      1.031126E-01     -3.144302E+00     515
-CONT-                  2.256009E-01     -1.138495E-01     -5.671982E-03     516
   7810009       G     -4.644150E-02     -5.906782E-02      1.460969E+00     517
-CONT-                  3.300820E-01     -1.609000E-01     -7.463950E-03     518
   7810010       G      4.481822E-04      2.861174E-02      1.573384E+00     519
-CONT-                  3.298983E-01     -1.547846E-01     -8.460728E-03     520
   7810011       G      4.208358E-02     -1.152973E-01      5.976213E+00     521
-CONT-                  3.584033E-01     -1.750706E-01     -8.967879E-03     522
   7810012       G      9.137500E-02     -2.224502E-02      6.111351E+00     523
-CONT-                  3.602208E-01     -1.746802E-01     -9.336121E-03     524
   7910007       G     -1.114388E-03      5.811820E-01     -1.002594E-02     525
-CONT-                 -2.142754E-01     -5.377577E-04      4.291189E-03     526
   7910008       G      8.437444E-05      2.131989E-01      3.669279E-03     527
-CONT-                 -2.149891E-01     -5.356475E-04      4.563684E-03     528
   7910009       G     -4.163986E-02      3.638291E-01     -2.048023E+00     529
-CONT-                 -2.140684E-01     -3.189473E-04      4.886399E-03     530
   7910010       G     -4.092998E-02      7.713369E-02     -2.032588E+00     531
-CONT-                 -2.114070E-01      2.926384E-04      3.842764E-03     532
   7910011       G      4.063393E-02      3.638317E-01      2.034694E+00     533
-CONT-                 -2.140667E-01     -7.539664E-04      4.885824E-03     534
   7910012       G      4.177485E-02      7.713391E-02      2.039931E+00     535
-CONT-                 -2.114106E-01     -1.372091E-03      3.842556E-03     536
$TITLE   = MSC.NASTRAN JOB CREATED ON 20-FEB-15 AT 15:37:03                  537
$SUBTITLE=DEFAULT                                                            538
$LABEL   =                                                                   539
$EIGENVECTOR                                                                 540
$REAL OUTPUT                                                                 541
$SUBCASE ID =           1                                                    542
$EIGENVALUE =  7.2236657E+03  MODE =     9                                   543
   7710001       G      2.664385E-01      1.235374E-02      3.038682E-02     544
-CONT-                 -4.973194E-03      7.044876E-02     -4.894766E-04     545
   7710002       G      2.483434E-01      1.681453E-03     -5.219934E-01     546
-CONT-                 -8.852030E-03      6.871165E-02     -6.650571E-04     547
   7710003       G      2.330442E-01      3.338212E-02     -9.232075E-02     548
-CONT-                 -3.580778E-02      5.393968E-02     -6.485560E-03     549
   7710004       G      2.277498E-01     -4.565270E-03     -4.240456E-01     550
-CONT-                 -4.292316E-02      5.818923E-02     -3.895474E-03     551
   7710005       G      2.143643E-02     -6.218808E-04      4.990943E-01     552
-CONT-                 -6.754897E-02      2.659068E-02     -1.992928E-02     553
   7710006       G      4.442162E-02     -1.120149E-01      2.543194E-01     554
-CONT-                 -7.416590E-02      2.189038E-02     -1.832381E-02     555
   7710007       G     -3.444124E-01     -1.445856E-01      1.200188E+00     556
-CONT-                 -3.798853E-02      1.154561E-02     -3.059834E-02     557
   7710008       G     -2.966794E-01     -2.944154E-01      1.094609E+00     558
-CONT-                 -4.577972E-02     -1.371905E-04     -2.904475E-02     559
   7710009       G     -8.358763E-01     -3.744057E-01      1.200448E+00     560
-CONT-                  4.369867E-02      6.731663E-03     -3.956053E-02     561
   7710010       G     -7.693376E-01     -5.365313E-01      1.277442E+00     562
-CONT-                  3.081535E-02     -1.101809E-02     -3.830158E-02     563
   7710011       G     -1.307165E+00     -5.986300E-01      3.308328E-01     564
-CONT-                  1.190653E-01      3.083149E-03     -4.488752E-02     565
   7710012       G     -1.224477E+00     -7.610621E-01      5.854359E-01     566
-CONT-                  1.024976E-01     -1.657901E-02     -4.162860E-02     567
   7810001       G      2.666251E-01     -1.284638E-02      3.197164E-02     568
-CONT-                  5.069181E-03      7.044739E-02      4.778165E-04     569
   7810002       G      2.485214E-01     -2.230150E-03     -5.204696E-01     570
-CONT-                  8.957695E-03      6.870447E-02      6.534414E-04     571
   7810003       G      2.333252E-01     -3.393367E-02     -8.977612E-02     572
-CONT-                  3.594533E-02      5.396165E-02      6.501472E-03     573
   7810004       G      2.280125E-01      4.011736E-03     -4.215699E-01     574
-CONT-                  4.299775E-02      5.818403E-02      3.891447E-03     575
   7810005       G      2.177800E-02      7.141062E-05      5.025786E-01     576
-CONT-                  6.757233E-02      2.659085E-02      1.992646E-02     577
   7810006       G      4.474856E-02      1.114594E-01      2.577999E-01     578
-CONT-                  7.419620E-02      2.187159E-02      1.832219E-02     579
   7810007       G     -3.439223E-01      1.441324E-01      1.203238E+00     580
-CONT-                  3.790217E-02      1.150527E-02      3.058178E-02     581
   7810008       G     -2.962201E-01      2.938259E-01      1.097968E+00     582
-CONT-                  4.570857E-02     -1.775871E-04      2.902295E-02     583
   7810009       G     -8.351185E-01      3.739289E-01      1.201460E+00     584
-CONT-                 -4.393042E-02      6.726165E-03      3.954533E-02     585
   7810010       G     -7.686083E-01      5.358973E-01      1.278948E+00     586
-CONT-                 -3.103659E-02     -1.104323E-02      3.828651E-02     587
   7810011       G     -1.306277E+00      5.981489E-01      3.288482E-01     588
-CONT-                 -1.193853E-01      3.089359E-03      4.487759E-02     589
   7810012       G     -1.223608E+00      7.604160E-01      5.840650E-01     590
-CONT-                 -1.028064E-01     -1.658929E-02      4.161649E-02     591
   7910007       G      3.773464E-01     -2.535423E-04      7.434235E-01     592
-CONT-                  4.337616E-05      7.272141E-02     -4.955161E-06     593
   7910008       G      2.140509E-01     -2.880443E-04     -1.117437E+00     594
-CONT-                  4.670751E-05      7.219633E-02     -6.147709E-06     595
   7910009       G      2.944845E-01     -2.411994E-03      2.859303E-01     596
-CONT-                 -1.816360E-03      7.373805E-02     -4.029005E-05     597
   7910010       G      1.686898E-01      1.116961E-03     -1.112848E+00     598
-CONT-                  3.512216E-03      7.464499E-02     -1.120387E-03     599
   7910011       G      2.943885E-01      1.939964E-03      2.851023E-01     600
-CONT-                  1.902279E-03      7.373767E-02      3.004991E-05     601
   7910012       G      1.685897E-01     -1.638272E-03     -1.113675E+00     602
-CONT-                 -3.422383E-03      7.464595E-02      1.109725E-03     603
$TITLE   = MSC.NASTRAN JOB CREATED ON 20-FEB-15 AT 15:37:03                  604
$SUBTITLE=DEFAULT                                                            605
$LABEL   =                                                                   606
$EIGENVECTOR                                                                 607
$REAL OUTPUT                                                                 608
$SUBCASE ID =           1                                                    609
$EIGENVALUE =  7.7405025E+03  MODE =    10                                   610
   7710001       G      2.725640E-01      2.151132E-01     -8.789701E-01     611
-CONT-                  4.822602E-02     -3.063499E-03      1.582439E-02     612
   7710002       G      2.576508E-01      3.477989E-01     -8.313417E-01     613
-CONT-                  3.441121E-02      3.711477E-03      1.690116E-02     614
   7710003       G      4.321043E-01      3.004504E-01     -1.269030E+00     615
-CONT-                  2.034771E-02     -2.335347E-02      1.507209E-02     616
   7710004       G      4.151958E-01      3.801369E-01     -1.137541E+00     617
-CONT-                  1.276110E-02     -1.952481E-02      1.499094E-02     618
   7710005       G      5.939161E-01      4.121865E-01     -9.236306E-01     619
-CONT-                 -2.736604E-02     -6.003655E-02      1.088357E-02     620
   7710006       G      5.948843E-01      4.558654E-01     -6.975943E-01     621
-CONT-                 -3.469157E-02     -6.233519E-02      1.187996E-02     622
   7710007       G      6.966426E-01      4.698209E-01     -3.846782E-02     623
-CONT-                 -2.925076E-02     -8.775769E-02      5.901715E-03     624
   7710008       G      7.158158E-01      4.909775E-01      3.254176E-01     625
-CONT-                 -3.797177E-02     -9.674409E-02      7.202864E-03     626
   7710009       G      7.308458E-01      4.650108E-01      6.153594E-01     627
-CONT-                  2.788308E-02     -1.039185E-01     -3.261537E-04     628
   7710010       G      7.666871E-01      4.786437E-01      1.172589E+00     629
-CONT-                  1.396837E-02     -1.210550E-01      1.067559E-03     630
   7710011       G      6.899891E-01      4.178388E-01      4.521640E-01     631
-CONT-                  9.906261E-02     -1.129144E-01     -5.087393E-03     632
   7710012       G      7.427078E-01      4.324720E-01      1.208801E+00     633
-CONT-                  8.063209E-02     -1.340693E-01     -1.538130E-03     634
   7810001       G     -2.724931E-01      2.150978E-01      8.811134E-01     635
-CONT-                  4.823865E-02      3.413282E-03      1.582515E-02     636
   7810002       G     -2.576764E-01      3.477855E-01      8.307216E-01     637
-CONT-                  3.445275E-02     -3.344320E-03      1.689691E-02     638
   7810003       G     -4.319814E-01      3.003732E-01      1.270454E+00     639
-CONT-                  2.045479E-02      2.365126E-02      1.503418E-02     640
   7810004       G     -4.152002E-01      3.800880E-01      1.136982E+00     641
-CONT-                  1.291175E-02      1.986902E-02      1.498275E-02     642
   7810005       G     -5.936813E-01      4.120501E-01      9.256798E-01     643
-CONT-                 -2.717017E-02      6.038860E-02      1.088100E-02     644
   7810006       G     -5.947891E-01      4.557867E-01      6.976329E-01     645
-CONT-                 -3.449897E-02      6.268992E-02      1.187520E-02     646
   7810007       G     -6.964893E-01      4.696504E-01      4.124595E-02     647
-CONT-                 -2.904337E-02      8.811826E-02      5.910944E-03     648
   7810008       G     -7.157709E-01      4.909525E-01     -3.247249E-01     649
-CONT-                 -3.777079E-02      9.711131E-02      7.215351E-03     650
   7810009       G     -7.309104E-01      4.649881E-01     -6.124914E-01     651
-CONT-                  2.799176E-02      1.043185E-01     -3.057352E-04     652
   7810010       G     -7.668687E-01      4.787587E-01     -1.171753E+00     653
-CONT-                  1.408223E-02      1.214421E-01      1.087912E-03     654
   7810011       G     -6.903026E-01      4.179593E-01     -4.503076E-01     655
-CONT-                  9.909530E-02      1.133352E-01     -5.062083E-03     656
   7810012       G     -7.431338E-01      4.327264E-01     -1.208913E+00     657
-CONT-                  8.067231E-02      1.344756E-01     -1.514871E-03     658
   7910007       G      2.994322E-04     -1.412833E-02      2.816047E-03     659
-CONT-                  4.941468E-02      1.778658E-04      1.537449E-02     660
   7910008       G     -9.705782E-05      4.878519E-01     -1.705141E-03     661
-CONT-                  4.972599E-02      1.771168E-04      1.520801E-02     662
   7910009       G     -1.457766E-01      1.387493E-01      4.738221E-01     663
-CONT-                  4.939833E-02      2.503215E-04      1.512104E-02     664
   7910010       G     -1.458346E-01      5.195623E-01      4.666500E-01     665
-CONT-                  4.694032E-02     -4.712151E-04      1.615555E-02     666
   7910011       G      1.459704E-01      1.387519E-01     -4.704099E-01     667
-CONT-                  4.940001E-02      1.060660E-04      1.512119E-02     668
   7910012       G      1.454172E-01      5.195622E-01     -4.700622E-01     669
-CONT-                  4.693496E-02      8.327484E-04      1.615697E-02     670
$TITLE   = MSC.NASTRAN JOB CREATED ON 20-FEB-15 AT 15:37:03                  671
$SUBTITLE=DEFAULT                                                            672
$LABEL   =                                                                   673
$EIGENVECTOR                                                                 674
$REAL OUTPUT                                                                 675
$SUBCASE ID =           1                                                    676
$EIGENVALUE =  1.5908330E+04  MODE =    11                                   677
   7710001       G     -8.692814E-01      1.174393E-02     -5.065187E-01     678
-CONT-                 -4.387962E-02     -1.421543E-02      7.938630E-03     679
   7710002       G     -8.883366E-01      7.998468E-02     -5.932541E-01     680
-CONT-                 -1.815518E-01      6.827777E-02      2.705484E-02     681
   7710003       G     -6.762930E-01      1.397146E-01      7.634670E-01     682
-CONT-                 -2.010165E-01     -4.610593E-02      4.086729E-02     683
   7710004       G     -7.345133E-01      2.222813E-01      5.670726E-01     684
-CONT-                 -1.628184E-01     -2.917614E-02      2.303821E-02     685
   7710005       G      3.701304E-01      4.833490E-01      4.562444E+00     686
-CONT-                 -2.621791E-01      2.264673E-02      9.291596E-02     687
   7710006       G      1.965896E-01      7.972390E-01      3.974175E+00     688
-CONT-                 -2.446928E-01      2.259319E-02      9.097175E-02     689
   7710007       G      2.003011E+00      9.046438E-01      6.300509E+00     690
-CONT-                 -3.619592E-02      1.629363E-01      1.224254E-01     691
   7710008       G      1.714990E+00      1.443857E+00      5.539424E+00     692
-CONT-                 -1.875161E-02      1.426311E-01      1.202659E-01     693
   7710009       G      3.902911E+00      1.429596E+00      3.447863E+00     694
-CONT-                  2.458015E-01      3.283487E-01      1.371485E-01     695
   7710010       G      3.535243E+00      2.125430E+00      2.425356E+00     696
-CONT-                  2.644738E-01      3.236466E-01      1.306316E-01     697
   7710011       G      5.432666E+00      1.951928E+00     -1.531575E+00     698
-CONT-                  3.408755E-01      4.398760E-01      1.358477E-01     699
   7710012       G      5.019407E+00      2.688601E+00     -2.916939E+00     700
-CONT-                  3.712119E-01      4.493383E-01      1.311656E-01     701
   7810001       G     -8.661862E-01     -1.203064E-02     -4.949464E-01     702
-CONT-                  4.442875E-02     -1.419015E-02     -8.101117E-03     703
   7810002       G     -8.853624E-01     -8.130880E-02     -5.816906E-01     704
-CONT-                  1.817517E-01      6.815143E-02     -2.717206E-02     705
   7810003       G     -6.715461E-01     -1.400495E-01      7.752129E-01     706
-CONT-                  1.984643E-01     -4.564204E-02     -4.098282E-02     707
   7810004       G     -7.299480E-01     -2.234041E-01      5.805087E-01     708
-CONT-                  1.620828E-01     -2.911751E-02     -2.317192E-02     709
   7810005       G      3.735323E-01     -4.832438E-01      4.546991E+00     710
-CONT-                  2.601617E-01      2.234630E-02     -9.281619E-02     711
   7810006       G      2.002938E-01     -7.974788E-01      3.963845E+00     712
-CONT-                  2.427196E-01      2.228559E-02     -9.087693E-02     713
   7810007       G      2.003632E+00     -9.053071E-01      6.270082E+00     714
-CONT-                  3.593584E-02      1.615209E-01     -1.222721E-01     715
   7810008       G      1.716657E+00     -1.443695E+00      5.514636E+00     716
-CONT-                  1.853434E-02      1.416392E-01     -1.200867E-01     717
   7810009       G      3.900516E+00     -1.429872E+00      3.430586E+00     718
-CONT-                 -2.448872E-01      3.264777E-01     -1.369372E-01     719
   7810010       G      3.533918E+00     -2.124484E+00      2.414880E+00     720
-CONT-                 -2.634825E-01      3.217945E-01     -1.304424E-01     721
   7810011       G      5.427886E+00     -1.951592E+00     -1.527262E+00     722
-CONT-                 -3.395979E-01      4.375652E-01     -1.356478E-01     723
   7810012       G      5.015855E+00     -2.686929E+00     -2.904336E+00     724
-CONT-                 -3.698092E-01      4.469782E-01     -1.309847E-01     725
   7910007       G     -8.874063E-01      1.878239E-04     -7.020825E-01     726
-CONT-                  3.593618E-04     -3.597414E-03     -8.477767E-05     727
   7910008       G     -8.668121E-01     -1.261118E-03     -5.795444E-01     728
-CONT-                  3.434982E-04      1.026108E-02     -8.826383E-05     729
   7910009       G     -8.828474E-01      1.481332E-03     -6.925821E-01     730
-CONT-                  8.173822E-03     -2.980816E-03      1.968281E-03     731
   7910010       G     -8.723005E-01     -1.523130E-02     -6.142127E-01     732
-CONT-                  1.071256E-02     -1.384402E-03      4.996043E-04     733
   7910011       G     -8.844875E-01     -1.412363E-03     -6.990258E-01     734
-CONT-                 -7.507841E-03     -2.972269E-03     -2.145004E-03     735
   7910012       G     -8.739440E-01      1.314182E-02     -6.206492E-01     736
-CONT-                 -1.005529E-02     -1.362140E-03     -6.709534E-04     737
$TITLE   = MSC.NASTRAN JOB CREATED ON 20-FEB-15 AT 15:37:03                  738
$SUBTITLE=DEFAULT                                                            739
$LABEL   =                                                                   740
$EIGENVECTOR                                                                 741
$REAL OUTPUT                                                                 742
$SUBCASE ID =           1                                                    743
$EIGENVALUE =  2.0197107E+04  MODE =    12                                   744
   7710001       G     -1.014199E+00     -9.202781E-02      2.230141E-01     745
-CONT-                  4.465461E-02     -6.118393E-02      4.651161E-03     746
   7710002       G     -1.006144E+00     -6.990248E-03      7.335360E-01     747
-CONT-                  2.843060E-02     -2.745194E-02      7.814839E-03     748
   7710003       G     -8.051806E-01     -1.877886E-01     -5.989416E-01     749
-CONT-                  1.960768E-01     -4.081086E-02      4.044579E-02     750
   7710004       G     -8.818954E-01      5.144755E-02      1.073865E-02     751
-CONT-                  1.863791E-01     -6.603620E-02      2.448849E-02     752
   7710005       G      3.099275E-01      8.590560E-02     -4.103988E+00     753
-CONT-                  2.692647E-01     -6.471003E-02      1.107611E-01     754
   7710006       G      1.446998E-01      6.754907E-01     -3.322515E+00     755
-CONT-                  2.648714E-01     -5.532550E-02      1.047611E-01     756
   7710007       G      2.172511E+00      9.229447E-01     -5.765224E+00     757
-CONT-                  3.136003E-02     -1.610479E-01      1.575896E-01     758
   7710008       G      1.954995E+00      1.649144E+00     -5.036966E+00     759
-CONT-                  2.666140E-02     -1.302818E-01      1.544146E-01     760
   7710009       G      4.517815E+00      2.024190E+00     -2.932406E+00     761
-CONT-                 -2.560154E-01     -2.753323E-01      1.825235E-01     762
   7710010       G      4.284254E+00      2.774837E+00     -2.179791E+00     763
-CONT-                 -2.613714E-01     -2.612939E-01      1.841408E-01     764
   7710011       G      6.543941E+00      2.894157E+00      1.734406E+00     765
-CONT-                 -3.303212E-01     -3.324635E-01      1.893483E-01     766
   7710012       G      6.316321E+00      3.650050E+00      2.665618E+00     767
-CONT-                 -3.470236E-01     -3.429215E-01      1.922865E-01     768
   7810001       G     -1.013963E+00      9.280908E-02      2.172222E-01     769
-CONT-                 -4.494201E-02     -6.118820E-02     -4.665709E-03     770
   7810002       G     -1.005935E+00      7.603080E-03      7.279170E-01     771
-CONT-                 -2.865488E-02     -2.740864E-02     -7.836252E-03     772
   7810003       G     -8.048748E-01      1.882796E-01     -6.068388E-01     773
-CONT-                 -1.955529E-01     -4.098230E-02     -4.042475E-02     774
   7810004       G     -8.815592E-01     -5.094137E-02      3.185341E-03     775
-CONT-                 -1.863416E-01     -6.610055E-02     -2.449478E-02     776
   7810005       G      3.104789E-01     -8.586764E-02     -4.103662E+00     777
-CONT-                 -2.685231E-01     -6.485400E-02     -1.107717E-01     778
   7810006       G      1.453111E-01     -6.752336E-01     -3.323002E+00     779
-CONT-                 -2.641384E-01     -5.542194E-02     -1.047846E-01     780
   7810007       G      2.172683E+00     -9.226671E-01     -5.757173E+00     781
-CONT-                 -3.127437E-02     -1.605238E-01     -1.574641E-01     782
   7810008       G      1.955146E+00     -1.648285E+00     -5.030437E+00     783
-CONT-                 -2.661023E-02     -1.300640E-01     -1.542900E-01     784
   7810009       G      4.516159E+00     -2.023049E+00     -2.927273E+00     785
-CONT-                  2.558477E-01     -2.748387E-01     -1.823892E-01     786
   7810010       G      4.282665E+00     -2.773123E+00     -2.176600E+00     787
-CONT-                  2.611842E-01     -2.608014E-01     -1.840032E-01     788
   7810011       G      6.540825E+00     -2.892359E+00      1.734802E+00     789
-CONT-                  3.300791E-01     -3.318696E-01     -1.892094E-01     790
   7810012       G      6.313242E+00     -3.647687E+00      2.663713E+00     791
-CONT-                  3.467512E-01     -3.423134E-01     -1.921433E-01     792
   7910007       G     -1.124311E+00      7.371643E-04     -2.453627E-01     793
-CONT-                 -9.757115E-05     -6.183001E-02     -3.141539E-06     794
   7910008       G     -9.794047E-01      1.875746E-04      1.365403E+00     795
-CONT-                 -1.764522E-04     -5.899242E-02     -3.043453E-06     796
   7910009       G     -1.052866E+00      1.754059E-02      1.475971E-01     797
-CONT-                  1.290767E-02     -7.057619E-02      9.517562E-04     798
   7910010       G     -9.423050E-01     -1.093754E-02      1.338757E+00     799
-CONT-                 -1.081135E-02     -6.730405E-02      3.430163E-03     800
   7910011       G     -1.053006E+00     -1.655141E-02      1.507642E-01     801
-CONT-                 -1.323993E-02     -7.058182E-02     -9.646470E-04     802
   7910012       G     -9.424261E-01      1.110539E-02      1.341882E+00     803
-CONT-                  1.048984E-02     -6.731511E-02     -3.447581E-03     804
$TITLE   = MSC.NASTRAN JOB CREATED ON 20-FEB-15 AT 15:37:03                  805
$SUBTITLE=DEFAULT                                                            806
$LABEL   =                                                                   807
$EIGENVECTOR                                                                 808
$REAL OUTPUT                                                                 809
$SUBCASE ID =           1                                                    810
$EIGENVALUE =  2.7720066E+04  MODE =    13                                   811
   7710001       G      3.783759E-01      7.983822E-02      3.006111E+00     812
-CONT-                 -1.241049E-01     -6.543510E-03      1.857719E-02     813
   7710002       G      3.766042E-01      2.019778E-01      3.048699E+00     814
-CONT-                 -5.942190E-02     -5.298357E-02      8.803077E-03     815
   7710003       G      5.769918E-01      1.586533E-02      3.437738E+00     816
-CONT-                  1.439176E-01     -7.481343E-03      1.108574E-02     817
   7710004       G      5.404568E-01      1.562643E-01      3.842964E+00     818
-CONT-                  4.703196E-02     -6.794743E-02      1.962574E-02     819
   7710005       G      5.643718E-01     -1.687143E-01     -1.325087E+00     820
-CONT-                  5.172921E-01     -1.557516E-01     -1.429752E-04     821
   7710006       G      6.120724E-01      4.353594E-02      4.615454E-01     822
-CONT-                  4.568984E-01     -2.131578E-01      1.178013E-03     823
   7710007       G      3.591785E-01     -1.065384E-01     -6.664698E+00     824
-CONT-                  4.106410E-01     -4.136851E-01     -5.338107E-03     825
   7710008       G      5.252673E-01      3.908255E-02     -4.014062E+00     826
-CONT-                  3.601624E-01     -4.161090E-01     -3.925020E-03     827
   7710009       G      1.058128E-01      1.031048E-01     -6.718104E+00     828
-CONT-                  3.796996E-02     -7.448925E-01     -8.469884E-03     829
   7710010       G      3.854565E-01      1.265194E-01     -3.246272E+00     830
-CONT-                 -1.199069E-02     -7.528795E-01      1.161933E-03     831
   7710011       G     -4.273730E-02      2.041585E-01     -2.300372E+00     832
-CONT-                 -1.210040E-01     -9.868932E-01     -2.590414E-03     833
   7710012       G      3.245774E-01      1.870920E-01      2.024546E+00     834
-CONT-                 -1.897330E-01     -1.011764E+00      6.209716E-03     835
   7810001       G     -3.824079E-01      7.962813E-02     -3.016081E+00     836
-CONT-                 -1.237850E-01      5.450946E-03      1.852711E-02     837
   7810002       G     -3.805043E-01      2.014169E-01     -3.051624E+00     838
-CONT-                 -5.812639E-02      5.251035E-02      8.622661E-03     839
   7810003       G     -5.802482E-01      1.504389E-02     -3.436395E+00     840
-CONT-                  1.418229E-01      6.174934E-03      1.077898E-02     841
   7810004       G     -5.433098E-01      1.549155E-01     -3.835596E+00     842
-CONT-                  4.768746E-02      6.656503E-02      1.949252E-02     843
   7810005       G     -5.656914E-01     -1.706397E-01      1.340576E+00     844
-CONT-                  5.177128E-01      1.538732E-01     -3.846245E-04     845
   7810006       G     -6.131067E-01      4.066501E-02     -4.380326E-01     846
-CONT-                  4.572822E-01      2.112094E-01      9.302205E-04     847
   7810007       G     -3.559012E-01     -1.096640E-01      6.689848E+00     848
-CONT-                  4.103158E-01      4.118705E-01     -5.755734E-03     849
   7810008       G     -5.219140E-01      3.416563E-02      4.047645E+00     850
-CONT-                  3.597758E-01      4.144072E-01     -4.307349E-03     851
   7810009       G     -9.627298E-02      9.926643E-02      6.728810E+00     852
-CONT-                  3.532713E-02      7.441992E-01     -8.904461E-03     853
   7810010       G     -3.763941E-01      1.198398E-01      3.265512E+00     854
-CONT-                 -1.466893E-02      7.520643E-01      7.639831E-04     855
   7810011       G      5.707929E-02      1.990109E-01      2.279351E+00     856
-CONT-                 -1.243685E-01      9.867373E-01     -3.009703E-03     857
   7810012       G     -3.109123E-01      1.788355E-01     -2.038489E+00     858
-CONT-                 -1.932433E-01      1.011652E+00      5.821009E-03     859
   7910007       G     -2.763977E-03      1.700305E-01     -1.043553E-02     860
-CONT-                 -1.762573E-01     -4.992175E-04      2.164001E-02     861
   7910008       G     -1.613804E-03      3.303942E-01      2.128689E-03     862
-CONT-                 -1.836212E-01     -4.366259E-04      2.341547E-02     863
   7910009       G     -2.083156E-01      9.889560E-02     -1.709773E+00     864
-CONT-                 -1.756483E-01      4.156503E-03      2.179577E-02     865
   7910010       G     -2.107030E-01      2.167879E-01     -1.707808E+00     866
-CONT-                 -1.766810E-01      1.024894E-02      2.190550E-02     867
   7910011       G      2.039168E-01      9.891132E-02      1.694845E+00     868
-CONT-                 -1.756806E-01     -5.128202E-03      2.177669E-02     869
   7910012       G      2.080285E-01      2.168767E-01      1.711873E+00     870
-CONT-                 -1.767815E-01     -1.126793E-02      2.190137E-02     871
$TITLE   = MSC.NASTRAN JOB CREATED ON 20-FEB-15 AT 15:37:03                  872
$SUBTITLE=DEFAULT                                                            873
$LABEL   =                                                                   874
$EIGENVECTOR                                                                 875
$REAL OUTPUT                                                                 876
$SUBCASE ID =           1                                                    877
$EIGENVALUE =  4.1078274E+04  MODE =    14                                   878
   7710001       G     -2.729003E-01      2.636480E-01      2.677839E+00     879
-CONT-                 -1.377456E-01      6.098797E-02     -2.057573E-02     880
   7710002       G     -2.527913E-01      6.311407E-02      2.337819E+00     881
-CONT-                  8.816204E-03     -2.646359E-02     -3.462753E-02     882
   7710003       G     -3.932127E-01      5.432194E-02      2.939732E+00     883
-CONT-                  4.539858E-02      2.271761E-01     -2.199560E-02     884
   7710004       G     -4.477564E-01     -5.586398E-02      2.045754E+00     885
-CONT-                  1.303945E-01      2.216847E-01     -1.799378E-02     886
   7710005       G     -4.437267E-01     -9.054641E-02     -8.935513E-01     887
-CONT-                  9.009769E-02      4.894282E-01     -4.944822E-03     888
   7710006       G     -5.964240E-01     -1.190379E-01     -3.125074E+00     889
-CONT-                  1.716223E-01      5.752771E-01     -1.435481E-02     890
   7710007       G     -3.144121E-01      1.641943E-01     -2.693287E+00     891
-CONT-                 -3.447807E-01      6.327096E-01      1.435209E-02     892
   7710008       G     -5.554941E-01      6.555342E-02     -6.470756E+00     893
-CONT-                 -2.745236E-01      7.444835E-01      7.427034E-03     894
   7710009       G      6.411294E-02      5.528480E-01      1.755432E+00     895
-CONT-                 -8.290963E-01      7.413548E-01      3.092461E-02     896
   7710010       G     -2.613470E-01      3.644372E-01     -3.335163E+00     897
-CONT-                 -7.631072E-01      8.164171E-01      2.859300E-02     898
   7710011       G      5.239354E-01      7.701354E-01      8.007298E+00     899
-CONT-                 -9.387900E-01      8.762442E-01      3.675633E-02     900
   7710012       G      1.275771E-01      5.631152E-01      2.194193E+00     901
-CONT-                 -8.928058E-01      8.975218E-01      3.535394E-02     902
   7810001       G      2.667029E-01      2.662069E-01     -2.627705E+00     903
-CONT-                 -1.368065E-01     -2.103081E-02     -2.345180E-02     904
   7810002       G      2.242966E-01      2.892079E-02     -2.728657E+00     905
-CONT-                  9.910114E-02      1.199908E-01     -4.683589E-02     906
   7810003       G      4.050470E-01      1.773512E-02     -2.756281E+00     907
-CONT-                  7.654620E-02     -2.744255E-01     -3.268274E-02     908
   7810004       G      4.536532E-01     -1.485484E-01     -1.700542E+00     909
-CONT-                  2.259894E-01     -2.856212E-01     -2.463495E-02     910
   7810005       G      5.770399E-01     -1.400051E-01      1.786597E+00     911
-CONT-                  1.616413E-02     -6.980579E-01     -2.135916E-02     912
   7810006       G      7.656999E-01     -2.913137E-01      5.221363E+00     913
-CONT-                  1.536921E-01     -8.448085E-01     -3.472176E-02     914
   7810007       G      6.187502E-01      1.381116E-01      2.736216E+00     915
-CONT-                 -6.191125E-01     -9.761054E-01     -2.446584E-03     916
   7810008       G      9.485465E-01     -1.582942E-01      8.703685E+00     917
-CONT-                 -5.017938E-01     -1.141778E+00     -1.216012E-02     918
   7810009       G      3.878845E-01      5.001799E-01     -4.179991E+00     919
-CONT-                 -1.222660E+00     -1.230241E+00      1.665251E-02     920
   7810010       G      8.622085E-01      7.817612E-02      3.943820E+00     921
-CONT-                 -1.112122E+00     -1.341485E+00      1.110236E-02     922
   7810011       G      2.015158E-02      6.485580E-01     -1.230951E+01     923
-CONT-                 -1.332408E+00     -1.498675E+00      2.220714E-02     924
   7810012       G      6.202052E-01      2.044403E-01     -2.883660E+00     925
-CONT-                 -1.245171E+00     -1.536866E+00      1.772794E-02     926
   7910007       G      4.589499E-02      6.760402E-01      3.149203E-01     927
-CONT-                 -1.507301E-01      2.980700E-02     -1.699941E-02     928
   7910008       G     -1.833741E-02     -9.080402E-02     -4.384935E-01     929
-CONT-                 -1.535821E-01      3.228397E-02     -1.545325E-02     930
   7910009       G      1.697266E-01      3.963160E-01     -1.340474E+00     931
-CONT-                 -1.492384E-01      2.847796E-02     -1.142917E-02     932
   7910010       G      1.202077E-01     -1.967585E-01     -1.865365E+00     933
-CONT-                 -1.082503E-01      4.554841E-02     -2.548744E-02     934
   7910011       G     -1.467551E-01      3.949994E-01      1.589238E+00     935
-CONT-                 -1.506292E-01      2.985472E-02     -1.341034E-02     936
   7910012       G     -1.967291E-01     -1.898728E-01      9.780564E-01     937
-CONT-                 -1.269277E-01      2.315068E-02     -2.208322E-02     938
$TITLE   = MSC.NASTRAN JOB CREATED ON 20-FEB-15 AT 15:37:03                  939
$SUBTITLE=DEFAULT                                                            940
$LABEL   =                                                                   941
$EIGENVECTOR                                                                 942
$REAL OUTPUT                                                                 943
$SUBCASE ID =           1                                                    944
$EIGENVALUE =  4.1117769E+04  MODE =    15                                   945
   7710001       G      4.848291E-02     -6.517378E-02     -4.554282E-01     946
-CONT-                  2.851467E-02      8.433501E-02      1.130307E-02     947
   7710002       G     -9.760369E-03      6.626474E-02     -1.451686E+00     948
-CONT-                 -2.165029E-01      2.315385E-01      3.666123E-02     949
   7710003       G      1.182733E-01      7.392359E-02     -2.035064E-01     950
-CONT-                 -8.136144E-02     -1.612418E-01      3.127578E-02     951
   7710004       G      1.154545E-01      2.320358E-01      3.629880E-01     952
-CONT-                 -2.575840E-01     -1.985936E-01      1.999773E-02     953
   7710005       G      4.180699E-01      1.363749E-01      2.317183E+00     954
-CONT-                  1.560482E-01     -6.027121E-01      4.005571E-02     955
   7710006       G      5.368543E-01      4.345730E-01      5.664704E+00     956
-CONT-                  4.544009E-03     -7.666149E-01      5.156976E-02     957
   7710007       G      7.948444E-01      2.324985E-02      6.821191E-01     958
-CONT-                  7.292850E-01     -9.540569E-01      3.664644E-02     959
   7710008       G      1.058085E+00      5.150815E-01      6.718482E+00     960
-CONT-                  6.017937E-01     -1.107829E+00      4.476239E-02     961
   7710009       G      1.059012E+00      1.225752E-03     -6.171050E+00     962
-CONT-                  1.117734E+00     -1.326447E+00      2.694066E-02     963
   7710010       G      1.485126E+00      5.973459E-01      2.164169E+00     964
-CONT-                  9.969519E-01     -1.429088E+00      3.516752E-02     965
   7710011       G      1.174257E+00      1.171940E-01     -1.199310E+01     966
-CONT-                  1.141121E+00     -1.675205E+00      2.634115E-02     967
   7710012       G      1.746937E+00      7.254798E-01     -2.115309E+00     968
-CONT-                  1.032458E+00     -1.720263E+00      3.402286E-02     969
   7810001       G     -6.946099E-02     -5.340874E-02      7.218627E-01     970
-CONT-                  3.246188E-02      1.023993E-01     -1.663746E-03     971
   7810002       G     -1.139208E-01     -8.865320E-02     -3.268323E-01     972
-CONT-                  1.931463E-01      1.990177E-01     -1.874749E-02     973
   7810003       G     -5.644117E-02     -9.176243E-02      1.061511E+00     974
-CONT-                  5.637025E-02     -5.031872E-02     -1.885729E-02     975
   7810004       G     -8.216041E-02     -1.889184E-01      1.199656E+00     976
-CONT-                  1.789276E-01     -8.695171E-02     -1.054655E-02     977
   7810005       G      1.944463E-01     -8.703679E-02      1.733619E+00     978
-CONT-                 -1.802036E-01     -3.410705E-01     -3.426885E-02     979
   7810006       G      2.379595E-01     -3.459706E-01      3.834419E+00     980
-CONT-                 -7.686544E-02     -4.539023E-01     -4.076538E-02     981
   7810007       G      5.897676E-01     -9.146086E-02     -5.186499E-01     982
-CONT-                 -5.177663E-01     -6.003505E-01     -3.919716E-02     983
   7810008       G      7.277154E-01     -4.963166E-01      3.375026E+00     984
-CONT-                 -4.314541E-01     -6.928594E-01     -4.367456E-02     985
   7810009       G      9.870570E-01     -2.347071E-01     -4.872351E+00     986
-CONT-                 -6.661333E-01     -8.931299E-01     -3.734309E-02     987
[...]
-CONT-                 -1.056128E-01     -2.013606E-01      1.286005E-02    3105
   7710009       G     -1.377509E-01      1.404049E-01      7.204772E-01    3106
-CONT-                 -8.536314E-02      1.129977E-01      3.647439E-02    3107
   7710010       G     -2.482017E-01      2.834510E-01      5.772017E-02    3108
-CONT-                 -2.046789E-01      3.900237E-02      5.206525E-02    3109
   7710011       G      2.957975E-01      2.125848E-01      5.076079E-02    3110
-CONT-                  7.029938E-02      8.387087E-02      4.590456E-02    3111
   7710012       G      1.896346E-01      4.478184E-01     -3.974335E-01    3112
-CONT-                  1.199209E-01      2.397477E-01      3.097217E-02    3113
   7810001       G      1.713021E-02     -1.418984E-01      7.321563E-01    3114
-CONT-                  5.521067E-02     -8.115434E-02     -4.598655E-03    3115
   7810002       G      1.363483E+00     -2.280897E-01      9.834698E+00    3116
-CONT-                 -1.088583E+00     -4.930594E+00      1.999278E-01    3117
   7810003       G      4.151401E-02      1.116973E-02     -2.964291E-01    3118
-CONT-                 -3.361233E-01     -3.450748E-02      7.481925E-03    3119
   7810004       G      9.608483E-02      3.027653E-02      1.913249E-01    3120
-CONT-                 -5.859862E-01      8.735896E-02      2.098968E-02    3121
   7810005       G     -3.959284E-01     -2.715955E-02     -1.311178E+00    3122
-CONT-                 -1.605035E-01     -2.977487E-01      2.327222E-02    3123
   7810006       G     -2.313088E-01      4.481057E-02      5.270600E-01    3124
-CONT-                 -2.940304E-01     -2.411765E-01      4.315941E-02    3125
   7810007       G     -5.062902E-01     -9.050715E-02     -1.139718E-01    3126
-CONT-                  9.049817E-02     -1.850478E-01      1.703558E-03    3127
   7810008       G     -4.373778E-01     -7.246616E-02      6.428735E-01    3128
-CONT-                  1.049133E-01     -2.003959E-01     -1.351906E-02    3129
   7810009       G     -1.195746E-01     -1.417359E-01      7.167359E-01    3130
-CONT-                  8.596990E-02      1.126921E-01     -3.411367E-02    3131
   7810010       G     -2.262343E-01     -2.747109E-01      5.397216E-02    3132
-CONT-                  2.038944E-01      3.960392E-02     -4.980321E-02    3133
   7810011       G      2.799734E-01     -2.020847E-01      5.712359E-02    3134
-CONT-                 -7.018053E-02      8.433780E-02     -4.237977E-02    3135
   7810012       G      1.795510E-01     -4.218454E-01     -3.900207E-01    3136
-CONT-                 -1.186035E-01      2.375987E-01     -2.778751E-02    3137
   7910007       G      1.794403E-01     -1.739388E-03      4.077100E-01    3138
-CONT-                  1.825653E-04      5.789134E-02      4.885439E-04    3139
   7910008       G      1.453142E-01      9.821116E-03     -5.988334E-01    3140
-CONT-                  1.536997E-04      1.628408E-01      4.406439E-04    3141
   7910009       G      8.983932E-02     -3.701578E-02      8.590413E-02    3142
-CONT-                 -1.910572E-02      6.404957E-02      1.625385E-02    3143
   7910010       G      8.210158E-02     -1.133462E-01     -5.708130E-01    3144
-CONT-                  5.148589E-01      1.810501E-01     -9.165572E-02    3145
   7910011       G      9.810207E-02      4.085852E-02      7.804581E-02    3146
-CONT-                  2.014019E-02      6.416553E-02     -1.556289E-02    3147
   7910012       G      9.092373E-02      1.342238E-01     -5.693894E-01    3148
-CONT-                 -5.187658E-01      1.795137E-01      9.352121E-02    3149
$TITLE   = MSC.NASTRAN JOB CREATED ON 20-FEB-15 AT 15:37:03                 3150
$SUBTITLE=DEFAULT                                                           3151
$LABEL   =                                                                  3152
$EIGENVECTOR                                                                3153
$REAL OUTPUT                                                                3154
$SUBCASE ID =           1                                                   3155
$EIGENVALUE =  1.0523646E+06  MODE =    48                                  3156
   7710001       G     -1.136435E-01      4.471996E-02      4.527429E-01    3157
-CONT-                 -7.778866E-02      8.735931E-02     -1.052512E-02    3158
   7710002       G     -5.321266E-01     -8.848004E-02     -2.764135E+00    3159
-CONT-                 -4.010208E-01      1.556710E+00      5.858678E-02    3160
   7710003       G     -5.635766E-02      8.834134E-02      1.340578E+00    3161
-CONT-                 -2.536611E-01      2.202047E-01      1.392698E-02    3162
   7710004       G     -1.541383E-01     -6.164282E-03     -2.545757E-01    3163
-CONT-                 -1.216392E-01      2.636396E-01     -1.987218E-03    3164
   7710005       G      4.241236E-01      4.570592E-02      1.334193E+00    3165
-CONT-                  6.053851E-02      3.513259E-01      3.529505E-02    3166
   7710006       G      2.723839E-01      1.229438E-01     -3.602053E-01    3167
-CONT-                  2.458114E-01      4.436066E-01     -1.234458E-02    3168
   7710007       G      4.844682E-01      1.029923E-01     -7.456761E-01    3169
-CONT-                  2.517114E-01      5.300855E-04      1.762016E-03    3170
   7710008       G      5.140359E-01      1.240190E-01     -2.267646E-01    3171
-CONT-                  4.270319E-01      9.297787E-02     -4.251832E-02    3172
   7710009       G     -9.667759E-03      1.629395E-01     -9.886662E-01    3173
-CONT-                  5.666556E-02     -2.818993E-01     -5.170088E-02    3174
   7710010       G      1.987638E-01     -6.325796E-02      4.340519E-01    3175
-CONT-                  2.438546E-01     -1.673758E-01     -6.802603E-02    3176
   7710011       G     -5.391503E-01      6.069515E-02      3.829811E-01    3177
-CONT-                 -1.560467E-01     -5.971954E-02     -6.330318E-02    3178
   7710012       G     -3.943417E-01     -2.952777E-01      4.280954E-01    3179
-CONT-                 -1.255140E-01     -4.655479E-02     -5.168621E-02    3180
   7810001       G      1.096909E-01      4.612093E-02     -4.598555E-01    3181
-CONT-                 -8.001709E-02     -8.882919E-02     -1.049449E-02    3182
   7810002       G      5.339947E-01     -8.874709E-02      2.801320E+00    3183
-CONT-                 -4.059558E-01     -1.577061E+00      5.945372E-02    3184
   7810003       G      4.897439E-02      9.202331E-02     -1.375771E+00    3185
-CONT-                 -2.573566E-01     -2.260511E-01      1.441801E-02    3186
   7810004       G      1.485294E-01     -5.684792E-03      2.606198E-01    3187
-CONT-                 -1.236485E-01     -2.708294E-01     -1.976882E-03    3188
   7810005       G     -4.343955E-01      4.546694E-02     -1.369477E+00    3189
-CONT-                  6.203740E-02     -3.602138E-01      3.541338E-02    3190
   7810006       G     -2.801008E-01      1.211338E-01      3.677796E-01    3191
-CONT-                  2.529184E-01     -4.552089E-01     -1.359823E-02    3192
   7810007       G     -4.883264E-01      9.918207E-02      7.636457E-01    3193
-CONT-                  2.584971E-01     -3.149457E-04      1.539148E-03    3194
   7810008       G     -5.191947E-01      1.198446E-01      2.302888E-01    3195
-CONT-                  4.385076E-01     -9.538410E-02     -4.393420E-02    3196
   7810009       G      1.447177E-02      1.599328E-01      1.015085E+00    3197
-CONT-                  5.863261E-02      2.896372E-01     -5.219484E-02    3198
   7810010       G     -1.982094E-01     -6.843119E-02     -4.476282E-01    3199
-CONT-                  2.504167E-01      1.723470E-01     -6.899736E-02    3200
   7810011       G      5.450386E-01      5.948726E-02     -3.902901E-01    3201
-CONT-                 -1.603682E-01      6.171678E-02     -6.364787E-02    3202
   7810012       G      3.984617E-01     -3.002004E-01     -4.366710E-01    3203
-CONT-                 -1.284584E-01      4.705442E-02     -5.184596E-02    3204
   7910007       G     -6.371865E-04      1.583631E-01      4.307630E-04    3205
-CONT-                 -1.893372E-02      8.907490E-05     -1.162362E-02    3206
   7910008       G     -7.971415E-04     -1.520680E-01     -2.660625E-03    3207
-CONT-                 -1.638342E-02      1.290605E-04     -7.598593E-03    3208
   7910009       G      9.400000E-02      6.460949E-02     -2.486022E-01    3209
-CONT-                 -1.898519E-02     -8.336682E-03      2.042182E-04    3210
   7910010       G      1.053013E-01     -1.876042E-01      4.564346E-02    3211
-CONT-                  1.307544E-01     -4.704273E-02     -4.093936E-02    3212
   7910011       G     -9.565313E-02      6.448853E-02      2.483964E-01    3213
-CONT-                 -1.878625E-02      8.406489E-03     -4.832540E-05    3214
   7910012       G     -1.067240E-01     -1.871799E-01     -4.915611E-02    3215
-CONT-                  1.273497E-01      4.825247E-02     -4.040899E-02    3216
$TITLE   = MSC.NASTRAN JOB CREATED ON 20-FEB-15 AT 15:37:03                 3217
$SUBTITLE=DEFAULT                                                           3218
$LABEL   =                                                                  3219
$EIGENVECTOR                                                                3220
$REAL OUTPUT                                                                3221
$SUBCASE ID =           1                                                   3222
$EIGENVALUE =  1.0530042E+06  MODE =    49                                  3223
   7710001       G      2.470702E-02      5.758210E-02      2.572966E-01    3224
-CONT-                 -8.063804E-02      3.823311E-02      8.668878E-04    3225
   7710002       G     -7.444217E-02      8.097566E-03     -5.689629E-01    3226
-CONT-                 -1.006989E-01      3.202615E-01      1.582547E-02    3227
   7710003       G      1.474520E-01      1.329046E-01      1.200802E+00    3228
-CONT-                 -2.157219E-01      1.835142E-01      8.128750E-03    3229
   7710004       G      7.995621E-02      2.186194E-02     -1.845782E-01    3230
-CONT-                 -3.741534E-02      2.448342E-01     -8.287780E-04    3231
   7710005       G      3.536545E-01      1.976500E-02      1.309647E+00    3232
-CONT-                  5.893926E-02      3.266745E-01      1.056766E-02    3233
   7710006       G      2.520552E-01     -1.095359E-02     -2.710639E-01    3234
-CONT-                  2.723017E-01      4.323227E-01     -4.070175E-02    3235
   7710007       G      1.675999E-01     -7.053730E-02     -6.545264E-01    3236
-CONT-                  2.505735E-01      2.535311E-03     -5.207488E-03    3237
   7710008       G      2.098717E-01     -8.292477E-02     -1.490208E-01    3238
-CONT-                  4.339517E-01      9.741925E-02     -5.290027E-02    3239
   7710009       G     -1.848699E-01     -3.783346E-02     -1.017250E+00    3240
-CONT-                  7.769599E-02     -2.905171E-01     -2.266184E-02    3241
   7710010       G     -1.811311E-02     -1.364973E-01      4.874070E-01    3242
-CONT-                  2.570437E-01     -1.818142E-01     -4.161966E-02    3243
   7710011       G     -2.866501E-01      1.438253E-02      2.715030E-01    3244
-CONT-                 -1.619587E-01     -7.828615E-02     -1.908477E-02    3245
   7710012       G     -2.095070E-01     -1.514623E-01      3.589144E-01    3246
-CONT-                 -1.191073E-01     -4.261837E-02     -1.061052E-02    3247
   7810001       G      3.081758E-02     -5.914298E-02      2.463882E-01    3248
-CONT-                  7.881555E-02      3.607035E-02     -1.250013E-03    3249
   7810002       G     -5.746994E-02     -1.370114E-02     -4.967128E-01    3250
-CONT-                  9.013168E-02      2.790047E-01     -1.439441E-02    3251
   7810003       G      1.524093E-01     -1.340683E-01      1.168192E+00    3252
-CONT-                  2.064286E-01      1.782292E-01     -7.962904E-03    3253
   7810004       G      8.783209E-02     -2.514681E-02     -1.781238E-01    3254
-CONT-                  3.406716E-02      2.386357E-01      8.066757E-04    3255
   7810005       G      3.401154E-01     -2.118624E-02      1.272252E+00    3256
-CONT-                 -5.764962E-02      3.170034E-01     -9.231395E-03    3257
   7810006       G      2.433426E-01      1.323938E-02     -2.608190E-01    3258
-CONT-                 -2.662841E-01      4.202323E-01      4.082942E-02    3259
   7810007       G      1.483483E-01      7.196458E-02     -6.355288E-01    3260
-CONT-                 -2.438070E-01      1.811018E-03      5.400611E-03    3261
   7810008       G      1.903689E-01      8.535854E-02     -1.410740E-01    3262
-CONT-                 -4.223339E-01      9.432186E-02      5.184971E-02    3263
   7810009       G     -1.883092E-01      4.054925E-02     -9.890040E-01    3264
-CONT-                 -7.595414E-02     -2.828870E-01      2.085229E-02    3265
   7810010       G     -2.784240E-02      1.314145E-01      4.769101E-01    3266
-CONT-                 -2.498462E-01     -1.775341E-01      3.934367E-02    3267
   7810011       G     -2.697380E-01     -1.637528E-02      2.613357E-01    3268
-CONT-                  1.577744E-01     -7.647264E-02      1.675691E-02    3269
   7810012       G     -1.975761E-01      1.371699E-01      3.452665E-01    3270
-CONT-                  1.152314E-01     -4.003725E-02      8.700199E-03    3271
   7910007       G     -4.733511E-02      2.021866E-03     -1.158071E-01    3272
-CONT-                 -3.276581E-04     -1.109445E-02     -2.531636E-04    3273
   7910008       G     -2.465202E-02     -4.203402E-03      1.242424E-01    3274
-CONT-                 -1.197387E-04     -1.045516E-02     -2.228292E-04    3275
   7910009       G     -2.893226E-02     -7.545665E-03     -5.654551E-02    3276
-CONT-                  3.520016E-03     -2.536396E-03     -5.139675E-03    3277
   7910010       G     -2.122201E-02      5.693693E-03      9.637621E-02    3278
-CONT-                 -6.852940E-02     -3.246120E-02      1.460756E-02    3279
   7910011       G     -3.312972E-02      7.875462E-03     -5.049798E-02    3280
-CONT-                 -4.212258E-03     -2.369664E-03      4.931090E-03    3281
   7910012       G     -2.580199E-02     -1.501221E-02      9.543261E-02    3282
-CONT-                  7.181391E-02     -3.134140E-02     -1.587812E-02    3283
$TITLE   = MSC.NASTRAN JOB CREATED ON 20-FEB-15 AT 15:37:03                 3284
$SUBTITLE=DEFAULT                                                           3285
$LABEL   =                                                                  3286
$EIGENVECTOR                                                                3287
$REAL OUTPUT                                                                3288
$SUBCASE ID =           1                                                   3289
$EIGENVALUE =  1.0650831E+06  MODE =    50                                  3290
   7710001       G     -2.153460E-02     -1.101278E-01      2.155987E-01    3291
-CONT-                  1.181841E-01      1.366967E-01     -1.433740E-02    3292
   7710002       G     -1.027639E+00     -2.276937E-01     -7.025607E+00    3293
-CONT-                 -6.221100E-01      3.782046E+00      1.203859E-01    3294
   7710003       G     -1.854667E-01     -1.098297E-01     -7.302233E-01    3295
-CONT-                 -9.002914E-02      2.584398E-02      4.256644E-03    3296
   7710004       G     -2.246809E-01     -4.085344E-02     -8.550306E-01    3297
-CONT-                 -3.673196E-01     -5.235498E-02      2.635853E-03    3298
   7710005       G      1.524049E-01      2.204373E-02      2.382335E-01    3299
-CONT-                 -1.826403E-01      5.851348E-02      2.802150E-02    3300
   7710006       G      6.983123E-02      1.118786E-01     -4.421912E-01    3301
-CONT-                 -2.886559E-01      2.162009E-02      5.416900E-02    3302
   7710007       G      5.383845E-01      1.044368E-01      8.249046E-01    3303
-CONT-                 -7.047287E-02      1.996547E-01      9.796821E-03    3304
   7710008       G      4.498081E-01      1.110099E-01     -3.474149E-01    3305
-CONT-                 -5.656026E-02      2.090051E-01      6.345458E-03    3306
   7710009       G      2.941891E-01     -3.151539E-03     -9.180478E-02    3307
-CONT-                  1.191018E-01      7.073637E-02     -3.355367E-02    3308
   7710010       G      3.358107E-01     -1.347896E-01     -2.484116E-01    3309
-CONT-                  2.075666E-01      1.263509E-01     -5.587533E-02    3310
   7710011       G     -2.904238E-01     -1.503933E-01     -5.513979E-01    3311
-CONT-                  8.770734E-02     -9.852417E-02     -5.474823E-02    3312
   7710012       G     -1.828198E-01     -3.461108E-01      5.008538E-01    3313
-CONT-                 -1.314890E-01     -4.977803E-01     -2.500192E-02    3314
   7810001       G      1.536741E-02     -1.120303E-01     -2.098916E-01    3315
-CONT-                  1.196027E-01     -1.371104E-01     -1.428723E-02    3316
   7810002       G      1.026804E+00     -2.296286E-01      7.065497E+00    3317
-CONT-                 -6.232722E-01     -3.801962E+00      1.208778E-01    3318
   7810003       G      1.803120E-01     -1.109560E-01      7.433356E-01    3319
-CONT-                 -9.135695E-02     -2.603529E-02      3.970424E-03    3320
   7810004       G      2.192873E-01     -4.204652E-02      8.635993E-01    3321
-CONT-                 -3.702244E-01      5.384792E-02      2.627805E-03    3322
   7810005       G     -1.555232E-01      2.028610E-02     -2.462776E-01    3323
-CONT-                 -1.856341E-01     -5.961844E-02      2.777560E-02    3324
   7810006       G     -7.278823E-02      1.082927E-01      4.463477E-01    3325
-CONT-                 -2.920541E-01     -2.271472E-02      5.413790E-02    3326
   7810007       G     -5.402244E-01      9.908840E-02     -8.406485E-01    3327
-CONT-                 -7.127140E-02     -2.029399E-01      9.770635E-03    3328
   7810008       G     -4.506890E-01      1.046927E-01      3.508718E-01    3329
-CONT-                 -5.640741E-02     -2.129238E-01      6.032102E-03    3330
   7810009       G     -2.949121E-01     -1.151625E-02      9.698616E-02    3331
-CONT-                  1.220045E-01     -7.103025E-02     -3.338333E-02    3332
   7810010       G     -3.364775E-01     -1.420888E-01      2.503629E-01    3333
-CONT-                  2.121502E-01     -1.276792E-01     -5.620078E-02    3334
   7810011       G      2.881403E-01     -1.568829E-01      5.636012E-01    3335
-CONT-                  8.860366E-02      1.009941E-01     -5.450500E-02    3336
   7810012       G      1.803645E-01     -3.511055E-01     -5.082759E-01    3337
-CONT-                 -1.338668E-01      5.064005E-01     -2.431866E-02    3338
   7910007       G     -2.151131E-03      2.543003E-01     -1.114210E-03    3339
-CONT-                 -6.341828E-02      1.779602E-05     -8.616230E-03    3340
   7910008       G     -3.116003E-03     -3.361731E-02     -6.610215E-03    3341
-CONT-                 -1.416086E-01     -1.165062E-03      2.167206E-02    3342
   7910009       G      2.848236E-02      8.236099E-02     -9.985388E-01    3343
-CONT-                 -4.703305E-02      1.584180E-02      1.780933E-02    3344
   7910010       G      5.212876E-02     -1.617872E-01     -3.127760E-01    3345
-CONT-                  3.465096E-01      1.742236E-02     -7.628335E-02    3346
   7910011       G     -3.326482E-02      8.275247E-02      9.957905E-01    3347
-CONT-                 -4.673087E-02     -1.536934E-02      1.759555E-02    3348
   7910012       G     -5.616405E-02     -1.618566E-01      3.042668E-01    3349
-CONT-                  3.425788E-01     -1.426994E-02     -7.594185E-02    3350
