$TITLE   = MSC.NASTRAN JOB CREATED ON 20-FEB-15 AT 15:37:03                    1
$SUBTITLE=DEFAULT                                                              2
$LABEL   =                                                                     3
$EIGENVECTOR                                                                   4
$REAL OUTPUT                                                                   5
$SUBCASE ID =           1                                                      6
$EIGENVALUE =  2.8315684E+00  MODE =     1                                     7
   7710001       G      1.503880E+00     -6.631419E-01      6.177141E-01       8
-CONT-                 -3.461975E-02     -6.240603E-06      8.426388E-02       9
   7710002       G      1.425599E+00     -2.978582E-02      5.855305E-01      10
-CONT-                 -3.467800E-02      2.769755E-05      8.427039E-02      11
   7710003       G      2.441403E+00     -2.808844E-01      1.003384E+00      12
-CONT-                 -3.471852E-02     -5.103163E-05      8.427408E-02      13
   7710004       G      2.283502E+00      9.650806E-02      9.385018E-01      14
-CONT-                 -3.471143E-02     -2.868498E-05      8.426828E-02      15
   7710005       G      3.632950E+00      2.006230E-01      1.496020E+00      16
-CONT-                 -3.490248E-02     -7.849180E-05      8.428639E-02      17
   7710006       G      3.475035E+00      5.781089E-01      1.430926E+00      18
-CONT-                 -3.489712E-02     -5.580303E-05      8.428533E-02      19
   7710007       G      4.805091E+00      6.742019E-01      1.982720E+00      20
-CONT-                 -3.501394E-02     -9.149092E-05      8.429389E-02      21
   7710008       G      4.647163E+00      1.051680E+00      1.917500E+00      22
-CONT-                 -3.501143E-02     -7.900755E-05      8.429331E-02      23
   7710009       G      5.977564E+00      1.148139E+00      2.470683E+00      24
-CONT-                 -3.506804E-02     -9.611366E-05      8.429747E-02      25
   7710010       G      5.819629E+00      1.525302E+00      2.405400E+00      26
-CONT-                 -3.506588E-02     -9.050911E-05      8.429733E-02      27
   7710011       G      6.895909E+00      1.519223E+00      2.853217E+00      28
-CONT-                 -3.508146E-02     -9.469156E-05      8.429843E-02      29
   7710012       G      6.738308E+00      1.896403E+00      2.788050E+00      30
-CONT-                 -3.507963E-02     -9.305357E-05      8.429819E-02      31
   7810001       G     -1.503560E+00     -6.631419E-01     -6.176189E-01      32
-CONT-                 -3.461976E-02      1.100787E-05      8.426388E-02      33
   7810002       G     -1.425280E+00     -2.978583E-02     -5.854718E-01      34
-CONT-                 -3.467795E-02     -2.290400E-05      8.427038E-02      35
   7810003       G     -2.441083E+00     -2.808846E-01     -1.003309E+00      36
-CONT-                 -3.471781E-02      5.565426E-05      8.427404E-02      37
   7810004       G     -2.283184E+00      9.650796E-02     -9.384495E-01      38
-CONT-                 -3.471110E-02      3.341618E-05      8.426827E-02      39
   7810005       G     -3.632629E+00      2.006226E-01     -1.495964E+00      40
-CONT-                 -3.490192E-02      8.326215E-05      8.428633E-02      41
   7810006       G     -3.474715E+00      5.781084E-01     -1.430893E+00      42
-CONT-                 -3.489656E-02      6.056681E-05      8.428528E-02      43
   7810007       G     -4.804769E+00      6.742011E-01     -1.982683E+00      44
-CONT-                 -3.501327E-02      9.607892E-05      8.429383E-02      45
   7810008       G     -4.646843E+00      1.051679E+00     -1.917486E+00      46
-CONT-                 -3.501076E-02      8.367760E-05      8.429325E-02      47
   7810009       G     -5.977241E+00      1.148138E+00     -2.470662E+00      48
-CONT-                 -3.506735E-02      1.007512E-04      8.429741E-02      49
   7810010       G     -5.819308E+00      1.525301E+00     -2.405402E+00      50
-CONT-                 -3.506519E-02      9.514654E-05      8.429728E-02      51
   7810011       G     -6.895586E+00      1.519221E+00     -2.853209E+00      52
-CONT-                 -3.508078E-02      9.932927E-05      8.429837E-02      53
   7810012       G     -6.737986E+00      1.896402E+00     -2.788065E+00      54
-CONT-                 -3.507894E-02      9.769135E-05      8.429813E-02      55
   7910007       G      1.633997E-04     -1.457217E+00      7.157644E-05      56
-CONT-                 -3.461083E-02      2.390591E-06      8.426106E-02      57
   7910008       G      1.580692E-04      6.163041E-01      1.055246E-05      58
-CONT-                 -3.460460E-02      2.390827E-06      8.425999E-02      59
   7910009       G     -8.003197E-01     -9.677524E-01     -3.287185E-01      60
-CONT-                 -3.461091E-02      2.285689E-06      8.426048E-02      61
   7910010       G     -8.003236E-01      5.944624E-01     -3.287605E-01      62
-CONT-                 -3.461054E-02      3.749451E-06      8.426073E-02      63
   7910011       G      8.006411E-01     -9.677524E-01      3.288317E-01      64
-CONT-                 -3.461091E-02      2.494787E-06      8.426048E-02      65
   7910012       G      8.006368E-01      5.944624E-01      3.287817E-01      66
-CONT-                 -3.461054E-02      1.031347E-06      8.426073E-02      67
$TITLE   = MSC.NASTRAN JOB CREATED ON 20-FEB-15 AT 15:37:03                   68
$SUBTITLE=DEFAULT                                                             69
$LABEL   =                                                                    70
$EIGENVECTOR                                                                  71
$REAL OUTPUT                                                                  72
$SUBCASE ID =           1                                                     73
$EIGENVALUE =  3.3069035E+00  MODE =     2                                    74
   7710001       G     -6.013643E-01      2.410073E-01      1.571638E+00      75
-CONT-                 -8.808182E-02     -8.254749E-06     -3.368735E-02      76
   7710002       G     -5.700672E-01     -3.942856E-02      1.489732E+00      77
-CONT-                 -8.819610E-02      4.334188E-05     -3.367666E-02      78
   7710003       G     -9.762425E-01      9.822695E-02      2.552886E+00      79
-CONT-                 -8.834731E-02     -1.263339E-04     -3.368084E-02      80
   7710004       G     -9.130503E-01     -9.200217E-02      2.387746E+00      81
-CONT-                 -8.833809E-02     -6.316656E-05     -3.369042E-02      82
   7710005       G     -1.452466E+00     -9.383758E-02      3.806798E+00      83
-CONT-                 -8.884828E-02     -2.185997E-04     -3.367706E-02      84
   7710006       G     -1.389260E+00     -2.842153E-01      3.641181E+00      85
-CONT-                 -8.883926E-02     -1.612107E-04     -3.367731E-02      86
   7710007       G     -1.920782E+00     -2.829003E-01      5.046028E+00      87
-CONT-                 -8.914439E-02     -2.725568E-04     -3.367340E-02      88
   7710008       G     -1.857569E+00     -4.733783E-01      4.880167E+00      89
-CONT-                 -8.914323E-02     -2.439912E-04     -3.367294E-02      90
   7710009       G     -2.389144E+00     -4.721305E-01      6.288635E+00      91
-CONT-                 -8.927729E-02     -3.047822E-04     -3.367174E-02      92
   7710010       G     -2.325928E+00     -6.624511E-01      6.122723E+00      93
-CONT-                 -8.927867E-02     -2.971833E-04     -3.367056E-02      94
   7710011       G     -2.755961E+00     -6.203423E-01      7.262754E+00      95
-CONT-                 -8.930024E-02     -3.190877E-04     -3.367069E-02      96
   7710012       G     -2.692876E+00     -8.106244E-01      7.097240E+00      97
-CONT-                 -8.930416E-02     -3.209208E-04     -3.366997E-02      98
   7810001       G      6.012019E-01      2.410073E-01     -1.571262E+00      99
-CONT-                 -8.808185E-02      3.406653E-05     -3.368735E-02     100
   7810002       G      5.698978E-01     -3.942859E-02     -1.489553E+00     101
-CONT-                 -8.819600E-02     -1.746904E-05     -3.367668E-02     102
   7810003       G      9.760827E-01      9.822655E-02     -2.552623E+00     103
-CONT-                 -8.834570E-02      1.518201E-04     -3.368095E-02     104
   7810004       G      9.128805E-01     -9.200240E-02     -2.387604E+00     105
-CONT-                 -8.833736E-02      8.887530E-05     -3.369046E-02     106
   7810005       G      1.452308E+00     -9.383853E-02     -3.806665E+00     107
-CONT-                 -8.884703E-02      2.444046E-04     -3.367718E-02     108
   7810006       G      1.389092E+00     -2.842163E-01     -3.641170E+00     109
-CONT-                 -8.883802E-02      1.869973E-04     -3.367742E-02     110
   7810007       G      1.920625E+00     -2.829022E-01     -5.046020E+00     111
-CONT-                 -8.914281E-02      2.978829E-04     -3.367352E-02     112
   7810008       G      1.857403E+00     -4.733801E-01     -4.880281E+00     113
-CONT-                 -8.914165E-02      2.695524E-04     -3.367307E-02     114
   7810009       G      2.388989E+00     -4.721331E-01     -6.288748E+00     115
-CONT-                 -8.927566E-02      3.302567E-04     -3.367185E-02     116
   7810010       G      2.325763E+00     -6.624536E-01     -6.122957E+00     117
-CONT-                 -8.927704E-02      3.226570E-04     -3.367068E-02     118
   7810011       G      2.755807E+00     -6.203453E-01     -7.262962E+00     119
-CONT-                 -8.929862E-02      3.445628E-04     -3.367081E-02     120
   7810012       G      2.692712E+00     -8.106274E-01     -7.097569E+00     121
-CONT-                 -8.930254E-02      3.463961E-04     -3.367009E-02     122
   7910007       G     -6.222113E-05      7.083292E-01      3.175943E-04     123
-CONT-                 -8.805461E-02      1.292143E-05     -3.369241E-02     124
   7910008       G     -9.103013E-05     -3.479311E-01     -1.223084E-05     125
-CONT-                 -8.804365E-02      1.292206E-05     -3.369371E-02     126
   7910009       G      3.199999E-01      3.967505E-01     -8.362224E-01     127
-CONT-                 -8.805010E-02      1.022101E-05     -3.369355E-02     128
   7910010       G      3.199769E-01     -4.035015E-01     -8.364686E-01     129
-CONT-                 -8.806219E-02      1.614171E-05     -3.368942E-02     130
   7910011       G     -3.201537E-01      3.967505E-01      8.366954E-01     131
-CONT-                 -8.805010E-02      1.562064E-05     -3.369355E-02     132
   7910012       G     -3.201752E-01     -4.035015E-01      8.364441E-01     133
-CONT-                 -8.806219E-02      9.701266E-06     -3.368941E-02     134
$TITLE   = MSC.NASTRAN JOB CREATED ON 20-FEB-15 AT 15:37:03                  135
$SUBTITLE=DEFAULT                                                            136
$LABEL   =                                                                   137
$EIGENVECTOR                                                                 138
$REAL OUTPUT                                                                 139
$SUBCASE ID =           1                                                    140
$EIGENVALUE =  1.6158742E+01  MODE =     3                                   141
   7710001       G     -3.151081E+00     -1.939029E-04      1.438123E-01     142
-CONT-                  1.148300E-05      1.890735E-02      2.420762E-05     143
   7710002       G     -3.156152E+00     -3.101941E-05     -2.770012E-04     144
-CONT-                  9.214765E-05      1.885526E-02      1.404841E-05     145
   7710003       G     -3.149039E+00     -1.430998E-04      5.822331E-02     146
-CONT-                  1.028846E-04      1.895367E-02      2.337368E-06     147
   7710004       G     -3.156353E+00     -7.496811E-05     -2.942761E-02     148
-CONT-                  9.288442E-05      1.893523E-02      1.104699E-05     149
   7710005       G     -3.149221E+00     -2.744887E-04     -5.282114E-02     150
-CONT-                  2.684774E-04      1.897488E-02     -2.499918E-05     151
   7710006       G     -3.156485E+00     -2.715577E-04     -1.402751E-01     152
-CONT-                  2.622528E-04      1.895327E-02     -2.274672E-05     153
   7710007       G     -3.149704E+00     -5.010911E-04     -1.639764E-01     154
-CONT-                  3.715616E-04      1.898213E-02     -3.984312E-05     155
   7710008       G     -3.156941E+00     -5.338509E-04     -2.512912E-01     156
-CONT-                  3.678696E-04      1.896951E-02     -3.845326E-05     157
   7710009       G     -3.150318E+00     -7.659750E-04     -2.762593E-01     158
-CONT-                  4.226380E-04      1.898064E-02     -4.630741E-05     159
   7710010       G     -3.157525E+00     -8.130064E-04     -3.634130E-01     160
-CONT-                  4.189535E-04      1.897401E-02     -4.564464E-05     161
   7710011       G     -3.150838E+00     -9.780704E-04     -3.644781E-01     162
-CONT-                  4.346070E-04      1.897329E-02     -4.730595E-05     163
   7710012       G     -3.158029E+00     -1.027751E-03     -4.515855E-01     164
-CONT-                  4.308582E-04      1.897152E-02     -4.671837E-05     165
   7810001       G     -3.152111E+00     -2.211145E-04      1.439553E-01     166
-CONT-                 -3.471940E-06      1.890733E-02      3.350039E-05     167
   7810002       G     -3.157129E+00      5.821163E-05     -1.415270E-04     168
-CONT-                 -8.408211E-05      1.885524E-02      4.365563E-05     169
   7810003       G     -3.150711E+00     -1.353217E-05      5.845759E-02     170
-CONT-                 -9.399559E-05      1.895342E-02      5.533696E-05     171
   7810004       G     -3.157917E+00      1.892251E-04     -2.920903E-02     172
-CONT-                 -8.436887E-05      1.893516E-02      4.665875E-05     173
   7810005       G     -3.151708E+00      4.472453E-04     -5.246084E-02     174
-CONT-                 -2.595210E-04      1.897476E-02      8.270153E-05     175
   7810006       G     -3.158865E+00      7.153714E-04     -1.399310E-01     176
-CONT-                 -2.532894E-04      1.895316E-02      8.045067E-05     177
   7810007       G     -3.152994E+00      9.979507E-04     -1.634895E-01     178
-CONT-                 -3.624300E-04      1.898179E-02      9.755549E-05     179
   7810008       G     -3.160122E+00      1.301852E-03     -2.508201E-01     180
-CONT-                 -3.587232E-04      1.896924E-02      9.615709E-05     181
   7810009       G     -3.154411E+00      1.587236E-03     -2.756431E-01     182
-CONT-                 -4.134517E-04      1.898030E-02      1.040227E-04     183
   7810010       G     -3.161510E+00      1.905235E-03     -3.628125E-01     184
-CONT-                 -4.097580E-04      1.897367E-02      1.033577E-04     185
   7810011       G     -3.155559E+00      2.053396E-03     -3.637603E-01     186
-CONT-                 -4.254279E-04      1.897293E-02      1.050227E-04     187
   7810012       G     -3.162642E+00      2.374048E-03     -4.508832E-01     188
-CONT-                 -4.216671E-04      1.897116E-02      1.044332E-04     189
   7910007       G     -3.123802E+00     -5.027095E-04      3.334041E-01     190
-CONT-                  4.086107E-06      1.889556E-02      2.885727E-05     191
   7910008       G     -3.165938E+00      2.426419E-04     -1.489198E-01     192
-CONT-                  4.006102E-06      1.888568E-02      2.885227E-05     193
   7910009       G     -3.145566E+00     -3.218534E-04      2.148608E-01     194
-CONT-                 -1.495586E-06      1.889792E-02      2.832126E-05     195
   7910010       G     -3.178130E+00      2.577945E-04     -1.488469E-01     196
-CONT-                  1.021436E-06      1.890078E-02      2.946331E-05     197
   7910011       G     -3.145017E+00     -3.123224E-04      2.147847E-01     198
-CONT-                  9.496734E-06      1.889792E-02      2.938345E-05     199
   7910012       G     -3.177582E+00      2.325523E-04     -1.489230E-01     200
-CONT-                  6.994046E-06      1.890078E-02      2.823708E-05     201
$TITLE   = MSC.NASTRAN JOB CREATED ON 20-FEB-15 AT 15:37:03                  202
$SUBTITLE=DEFAULT                                                            203
$LABEL   =                                                                   204
$EIGENVECTOR                                                                 205
$REAL OUTPUT                                                                 206
$SUBCASE ID =           1                                                    207
$EIGENVALUE =  2.0776948E+01  MODE =     4                                   208
   7710001       G      2.968682E-03     -3.179735E+00     -5.767069E-02     209
-CONT-                  3.234858E-03      4.931432E-06      1.647476E-04     210
   7710002       G      2.816808E-03     -3.177633E+00     -5.462470E-02     211
-CONT-                  3.302475E-03     -3.689252E-05      1.564129E-04     212
   7710003       G      4.782616E-03     -3.179370E+00     -9.411324E-02     213
-CONT-                  3.324401E-03      4.737640E-05      1.502563E-04     214
   7710004       G      4.474309E-03     -3.177380E+00     -8.805510E-02     215
-CONT-                  3.315950E-03      2.804868E-05      1.573429E-04     216
   7710005       G      6.779378E-03     -3.178654E+00     -1.427471E-01     217
-CONT-                  3.495094E-03      7.104681E-05      1.325633E-04     218
   7710006       G      6.493811E-03     -3.176684E+00     -1.364769E-01     219
-CONT-                  3.488966E-03      4.855278E-05      1.341698E-04     220
   7710007       G      8.543594E-03     -3.178002E+00     -1.926591E-01     221
-CONT-                  3.610648E-03      8.266024E-05      1.219916E-04     222
   7710008       G      8.277013E-03     -3.176040E+00     -1.862434E-01     223
-CONT-                  3.606900E-03      6.777789E-05      1.230732E-04     224
   7710009       G      1.019645E-02     -3.177374E+00     -2.438951E-01     225
-CONT-                  3.683845E-03      8.813508E-05      1.163387E-04     226
   7710010       G      9.941250E-03     -3.175417E+00     -2.373816E-01     227
-CONT-                  3.679305E-03      7.777249E-05      1.169108E-04     228
   7710011       G      1.144792E-02     -3.176886E+00     -2.845933E-01     229
-CONT-                  3.718941E-03      8.864743E-05      1.136833E-04     230
   7710012       G      1.119893E-02     -3.174930E+00     -2.780351E-01     231
-CONT-                  3.713745E-03      8.013983E-05      1.144068E-04     232
   7810001       G     -3.025160E-03     -3.179735E+00      5.749153E-02     233
-CONT-                  3.234868E-03     -1.484997E-05      1.647467E-04     234
   7810002       G     -2.870635E-03     -3.177633E+00      5.452135E-02     235
-CONT-                  3.302435E-03      2.695133E-05      1.564187E-04     236
   7810003       G     -4.840114E-03     -3.179370E+00      9.397748E-02     237
-CONT-                  3.323763E-03     -5.716102E-05      1.502978E-04     238
   7810004       G     -4.527970E-03     -3.177380E+00      8.796590E-02     239
-CONT-                  3.315652E-03     -3.794232E-05      1.573580E-04     240
   7810005       G     -6.837606E-03     -3.178654E+00      1.426609E-01     241
-CONT-                  3.494603E-03     -8.098433E-05      1.326128E-04     242
   7810006       G     -6.548119E-03     -3.176683E+00      1.364377E-01     243
-CONT-                  3.488474E-03     -5.848020E-05      1.342159E-04     244
   7810007       G     -8.602449E-03     -3.178001E+00      1.926215E-01     245
-CONT-                  3.610066E-03     -9.240840E-05      1.220470E-04     246
   7810008       G     -8.332030E-03     -3.176040E+00      1.862523E-01     247
-CONT-                  3.606315E-03     -7.761126E-05      1.231315E-04     248
   7810009       G     -1.025612E-02     -3.177373E+00      2.439044E-01     249
-CONT-                  3.683252E-03     -9.793934E-05      1.163953E-04     250
   7810010       G     -9.997049E-03     -3.175415E+00      2.374374E-01     251
-CONT-                  3.678712E-03     -8.757630E-05      1.169671E-04     252
   7810011       G     -1.150820E-02     -3.176884E+00      2.846393E-01     253
-CONT-                  3.718351E-03     -9.845407E-05      1.137397E-04     254
   7810012       G     -1.125535E-02     -3.174929E+00      2.781276E-01     255
-CONT-                  3.713155E-03     -8.994685E-05      1.144631E-04     256
   7910007       G     -3.554802E-05     -3.186149E+00     -1.393735E-04     257
-CONT-                  3.224492E-03     -4.965458E-06      1.674332E-04     258
   7910008       G     -2.447694E-05     -3.174689E+00     -1.262990E-05     259
-CONT-                  3.221628E-03     -4.965252E-06      1.679795E-04     260
   7910009       G     -1.619912E-03     -3.181433E+00      3.051745E-02     261
-CONT-                  3.224762E-03     -4.804449E-06      1.688108E-04     262
   7910010       G     -1.605919E-03     -3.172657E+00      3.061927E-02     263
-CONT-                  3.228980E-03     -3.254905E-06      1.681858E-04     264
   7910011       G      1.560110E-03     -3.181433E+00     -3.073387E-02     265
-CONT-                  3.224763E-03     -5.125219E-06      1.688110E-04     266
   7910012       G      1.563233E-03     -3.172657E+00     -3.064453E-02     267
-CONT-                  3.228979E-03     -6.675494E-06      1.681858E-04     268
$TITLE   = MSC.NASTRAN JOB CREATED ON 20-FEB-15 AT 15:37:03                  269
$SUBTITLE=DEFAULT                                                            270
$LABEL   =                                                                   271
$EIGENVECTOR                                                                 272
$REAL OUTPUT                                                                 273
$SUBCASE ID =           1                                                    274
$EIGENVALUE =  3.2894297E+01  MODE =     5                                   275
   7710001       G      9.890381E-02     -2.030917E-04     -2.669157E+00     276
-CONT-                  2.027870E-04      4.910613E-02     -3.491579E-05     277
   7710002       G      8.581604E-02     -4.412038E-04     -3.042475E+00     278
-CONT-                  1.046437E-03      4.872337E-02     -1.165197E-04     279
   7710003       G      1.036766E-01     -1.552675E-03     -2.900655E+00     280
-CONT-                  2.037271E-03      4.993487E-02     -1.006452E-04     281
   7710004       G      8.445212E-02     -1.150279E-03     -3.127289E+00     282
-CONT-                  1.974018E-03      4.950957E-02     -2.880777E-05     283
   7710005       G      1.023180E-01     -4.326162E-03     -3.242654E+00     284
-CONT-                  5.409075E-03      5.055824E-02     -1.530987E-04     285
   7710006       G      8.307797E-02     -2.919223E-03     -3.466152E+00     286
-CONT-                  5.349516E-03      5.017835E-02     -1.497363E-04     287
   7710007       G      1.000430E-01     -6.501353E-03     -3.618234E+00     288
-CONT-                  7.355689E-03      5.090963E-02     -1.921930E-04     289
   7710008       G      8.078359E-02     -4.566510E-03     -3.840126E+00     290
-CONT-                  7.347020E-03      5.072339E-02     -1.937931E-04     291
   7710009       G      9.729466E-02     -8.178381E-03     -4.014306E+00     292
-CONT-                  8.217976E-03      5.111204E-02     -2.097837E-04     293
   7710010       G      7.806020E-02     -6.023376E-03     -4.235633E+00     294
-CONT-                  8.224317E-03      5.106036E-02     -2.163667E-04     295
   7710011       G      9.497008E-02     -9.233802E-03     -4.330064E+00     296
-CONT-                  8.371171E-03      5.119677E-02     -2.176531E-04     297
   7710012       G      7.574498E-02     -7.049057E-03     -4.551644E+00     298
-CONT-                  8.392051E-03      5.120582E-02     -2.214171E-04     299
   7810001       G      9.888813E-02      3.145819E-04     -2.669884E+00     300
-CONT-                 -2.438032E-04      4.910600E-02      3.582707E-05     301
   7810002       G      8.580119E-02      5.480948E-04     -3.043165E+00     302
-CONT-                 -1.087061E-03      4.872344E-02      1.173548E-04     303
   7810003       G      1.036522E-01      1.669685E-03     -2.901821E+00     304
-CONT-                 -2.067881E-03      4.993285E-02      1.008371E-04     305
   7810004       G      8.442911E-02      1.256614E-03     -3.128386E+00     306
-CONT-                 -2.010718E-03      4.950895E-02      2.942239E-05     307
   7810005       G      1.022927E-01      4.445909E-03     -3.244304E+00     308
-CONT-                 -5.444203E-03      5.055886E-02      1.532346E-04     309
   7810006       G      8.305262E-02      3.026101E-03     -3.467739E+00     310
-CONT-                 -5.384599E-03      5.017861E-02      1.499031E-04     311
   7810007       G      1.000140E-01      6.620943E-03     -3.620375E+00     312
-CONT-                 -7.389782E-03      5.090729E-02      1.922885E-04     313
   7810008       G      8.075613E-02      4.673800E-03     -3.842197E+00     314
-CONT-                 -7.381148E-03      5.072246E-02      1.938965E-04     315
   7810009       G      9.726401E-02      8.299068E-03     -4.016915E+00     316
-CONT-                 -8.252320E-03      5.111077E-02      2.099491E-04     317
   7810010       G      7.803035E-02      6.131656E-03     -4.238171E+00     318
-CONT-                 -8.258658E-03      5.105905E-02      2.165365E-04     319
   7810011       G      9.493759E-02      9.355304E-03     -4.333043E+00     320
-CONT-                 -8.405619E-03      5.119554E-02      2.178244E-04     321
   7810012       G      7.571328E-02      7.158149E-03     -4.554552E+00     322
-CONT-                 -8.426509E-03      5.120460E-02      2.215905E-04     323
   7910007       G      1.707711E-01      8.106451E-05     -2.177895E+00     324
-CONT-                 -2.038852E-05      4.894286E-02      4.327017E-07     325
   7910008       G      6.160094E-02      4.685386E-05     -3.427253E+00     326
-CONT-                 -2.033878E-05      4.887730E-02      4.314208E-07     327
   7910009       G      1.151116E-01      9.431508E-05     -2.485171E+00     328
-CONT-                 -1.930424E-05      4.892662E-02     -1.235071E-05     329
   7910010       G      3.075615E-02      7.949192E-05     -3.427311E+00     330
-CONT-                 -1.336918E-04      4.897980E-02      1.114465E-05     331
   7910011       G      1.151199E-01      2.707225E-05     -2.484784E+00     332
-CONT-                 -2.137596E-05      4.892665E-02      1.321832E-05     333
   7910012       G      3.076444E-02     -1.145966E-05     -3.426924E+00     334
-CONT-                  9.291077E-05      4.897979E-02     -1.026984E-05     335
$TITLE   = MSC.NASTRAN JOB CREATED ON 20-FEB-15 AT 15:37:03                  336
$SUBTITLE=DEFAULT                                                            337
$LABEL   =                                                                   338
$EIGENVECTOR                                                                 339
$REAL OUTPUT                                                                 340
$SUBCASE ID =           1                                                    341
$EIGENVALUE =  3.7707875E+01  MODE =     6                                   342
   7710001       G     -4.714566E-01      3.781436E-04     -2.815733E+00     343
-CONT-                 -2.534434E-04     -2.690366E-01      3.441698E-05     344
   7710002       G     -3.996103E-01      5.981186E-04     -7.654419E-01     345
-CONT-                 -1.185810E-03     -2.685987E-01      1.217250E-04     346
   7710003       G     -4.975832E-01      1.875217E-03     -1.593869E+00     347
-CONT-                 -2.315449E-03     -2.700044E-01      1.031864E-04     348
   7710004       G     -3.935434E-01      1.368449E-03     -3.474859E-01     349
-CONT-                 -2.262299E-03     -2.695081E-01      2.132797E-05     350
   7710005       G     -4.963086E-01      5.110280E-03      1.468288E-02     351
-CONT-                 -6.390857E-03     -2.708363E-01      1.605948E-04     352
   7710006       G     -3.923246E-01      3.355456E-03      1.257776E+00     353
-CONT-                 -6.332432E-03     -2.703655E-01      1.563855E-04     354
   7710007       G     -4.938296E-01      7.740458E-03      1.646647E+00     355
-CONT-                 -8.961716E-03     -2.713783E-01      2.077248E-04     356
   7710008       G     -3.897550E-01      5.266194E-03      2.887906E+00     357
-CONT-                 -8.966072E-03     -2.711316E-01      2.105067E-04     358
   7710009       G     -4.908755E-01      9.758395E-03      3.307881E+00     359
-CONT-                 -1.019807E-02     -2.717390E-01      2.295913E-04     360
   7710010       G     -3.869435E-01      6.959014E-03      4.547827E+00     361
-CONT-                 -1.022326E-02     -2.716739E-01      2.411604E-04     362
   7710011       G     -4.883180E-01      1.097502E-02      4.617180E+00     363
-CONT-                 -1.043362E-02     -2.719193E-01      2.417313E-04     364
   7710012       G     -3.844757E-01      8.128384E-03      5.857724E+00     365
-CONT-                 -1.048280E-02     -2.719398E-01      2.494466E-04     366
   7810001       G     -4.713198E-01     -1.258172E-04     -2.817415E+00     367
-CONT-                  1.589522E-04     -2.690360E-01     -4.200435E-05     368
   7810002       G     -3.994807E-01     -4.281590E-04     -7.670357E-01     369
-CONT-                  1.088494E-03     -2.685995E-01     -1.289898E-04     370
   7810003       G     -4.973625E-01     -1.641690E-03     -1.596649E+00     371
-CONT-                  2.204298E-03     -2.699995E-01     -1.097190E-04     372
   7810004       G     -3.933377E-01     -1.208913E-03     -3.500794E-01     373
-CONT-                  2.157951E-03     -2.695059E-01     -2.858798E-05     374
   7810005       G     -4.959965E-01     -4.910033E-03      1.029250E-02     375
-CONT-                  6.274990E-03     -2.708325E-01     -1.669783E-04     376
   7810006       G     -3.920261E-01     -3.229527E-03      1.253587E+00     377
-CONT-                  6.216715E-03     -2.703625E-01     -1.628222E-04     378
   7810007       G     -4.934266E-01     -7.570762E-03      1.640571E+00     379
-CONT-                  8.838251E-03     -2.713694E-01     -2.139127E-04     380
   7810008       G     -3.893677E-01     -5.173294E-03      2.882029E+00     381
-CONT-                  8.842721E-03     -2.711253E-01     -2.167172E-04     382
   7810009       G     -4.903860E-01     -9.622457E-03      3.300025E+00     383
-CONT-                  1.007220E-02     -2.717310E-01     -2.358326E-04     384
   7810010       G     -3.864688E-01     -6.900280E-03      4.540169E+00     385
-CONT-                  1.009738E-02     -2.716660E-01     -2.473880E-04     386
   7810011       G     -4.877606E-01     -1.086625E-02      4.607914E+00     387
-CONT-                  1.030738E-02     -2.719111E-01     -2.479546E-04     388
   7810012       G     -3.839330E-01     -8.096845E-03      5.848657E+00     389
-CONT-                  1.035652E-02     -2.719316E-01     -2.556618E-04     390
   7910007       G     -8.666703E-01      2.335831E-04     -5.513315E+00     391
-CONT-                 -4.714612E-05     -2.688515E-01     -3.827739E-06     392
   7910008       G     -2.672263E-01      3.112496E-05      1.348994E+00     393
-CONT-                 -4.712182E-05     -2.687956E-01     -3.814556E-06     394
   7910009       G     -5.608877E-01      1.222322E-04     -3.826583E+00     395
-CONT-                 -4.838519E-05     -2.688419E-01      1.184293E-05     396
   7910010       G     -9.753113E-02     -4.270619E-05      1.348442E+00     397
-CONT-                  7.990065E-05     -2.688659E-01     -1.816572E-05     398
   7910011       G     -5.609603E-01      1.899342E-04     -3.825689E+00     399
-CONT-                 -4.578868E-05     -2.688419E-01     -1.951370E-05     400
   7910012       G     -9.760370E-02      4.554756E-05      1.349337E+00     401
-CONT-                 -1.743176E-04     -2.688659E-01      1.056061E-05     402
$TITLE   = MSC.NASTRAN JOB CREATED ON 20-FEB-15 AT 15:37:03                  403
$SUBTITLE=DEFAULT                                                            404
$LABEL   =                                                                   405
$EIGENVECTOR                                                                 406
$REAL OUTPUT                                                                 407
$SUBCASE ID =           1                                                    408
$EIGENVALUE =  1.4759164E+03  MODE =     7                                   409
   7710001       G      2.862172E-01      7.287735E-03      3.605764E-01     410
-CONT-                 -6.816497E-03      3.543656E-01      1.256264E-03     411
   7710002       G      1.896594E-01      1.618851E-02     -2.384585E+00     412
-CONT-                 -3.602670E-02      3.698715E-01      4.135203E-03     413
   7710003       G      3.215308E-01      5.634285E-02     -8.556600E-01     414
-CONT-                 -7.440283E-02      3.260846E-01      4.111542E-03     415
   7710004       G      1.949296E-01      4.219016E-02     -2.550546E+00     416
-CONT-                 -6.918430E-02      3.434414E-01      1.302166E-03     417
   7710005       G      3.875513E-01      1.745346E-01     -5.289883E-01     418
-CONT-                 -2.179415E-01      3.053377E-01      7.326746E-03     419
   7710006       G      2.606764E-01      1.216766E-01     -2.395638E+00     420
-CONT-                 -2.133718E-01      3.246019E-01      6.884694E-03     421
   7710007       G      5.008378E-01      2.823873E-01      1.577868E+00     422
-CONT-                 -3.166757E-01      2.925960E-01      9.815846E-03     423
   7710008       G      3.720832E-01      2.052312E-01     -3.985832E-01     424
-CONT-                 -3.147566E-01      3.041128E-01      9.682132E-03     425
   7710009       G      6.457685E-01      3.730769E-01      4.765121E+00     426
-CONT-                 -3.686767E-01      2.854813E-01      1.117333E-02     427
   7710010       G      5.155135E-01      2.840805E-01      2.741867E+00     428
-CONT-                 -3.674969E-01      2.901350E-01      1.137315E-02     429
   7710011       G      7.718998E-01      4.317148E-01      7.605742E+00     430
-CONT-                 -3.809178E-01      2.838051E-01      1.180402E-02     431
   7710012       G      6.409454E-01      3.406924E-01      5.575991E+00     432
-CONT-                 -3.806221E-01      2.846547E-01      1.186752E-02     433
   7810001       G      2.862184E-01     -7.524938E-03      3.621481E-01     434
-CONT-                  6.919008E-03      3.543653E-01     -1.258797E-03     435
   7810002       G      1.896600E-01     -1.639567E-02     -2.383043E+00     436
-CONT-                  3.614253E-02      3.698783E-01     -4.137702E-03     437
   7810003       G      3.214930E-01     -5.654323E-02     -8.532908E-01     438
-CONT-                  7.414595E-02      3.261123E-01     -4.090733E-03     439
   7810004       G      1.949194E-01     -4.238363E-02     -2.548048E+00     440
-CONT-                  6.918587E-02      3.434415E-01     -1.294754E-03     441
   7810005       G      3.871038E-01     -1.747473E-01     -5.267468E-01     442
-CONT-                  2.180018E-01      3.052439E-01     -7.302178E-03     443
   7810006       G      2.603180E-01     -1.217524E-01     -2.393138E+00     444
-CONT-                  2.134281E-01      3.245378E-01     -6.861780E-03     445
   7810007       G      5.001396E-01     -2.824618E-01      1.581942E+00     446
-CONT-                  3.167517E-01      2.926416E-01     -9.790541E-03     447
   7810008       G      3.713932E-01     -2.051747E-01     -3.946249E-01     448
-CONT-                  3.148328E-01      3.040940E-01     -9.656609E-03     449
   7810009       G      6.447244E-01     -3.730533E-01      4.770611E+00     450
-CONT-                  3.687944E-01      2.854663E-01     -1.115124E-02     451
   7810010       G      5.145162E-01     -2.839115E-01      2.747197E+00     452
-CONT-                  3.676148E-01      2.901238E-01     -1.135153E-02     453
   7810011       G      7.706176E-01     -4.316034E-01      7.612666E+00     454
-CONT-                  3.810464E-01      2.837843E-01     -1.178249E-02     455
   7810012       G      6.397109E-01     -3.404332E-01      5.582769E+00     456
-CONT-                  3.807522E-01      2.846334E-01     -1.184626E-02     457
   7910007       G      8.180806E-01     -1.703387E-04      3.942160E+00     458
-CONT-                  4.449797E-05      3.592245E-01      2.811394E-07     459
   7910008       G      1.866142E-02     -7.427823E-05     -5.224325E+00     460
-CONT-                  4.555687E-05      3.613009E-01     -6.846892E-07     461
   7910009       G      4.093831E-01     -9.677244E-04      1.683833E+00     462
-CONT-                  1.368638E-04      3.596994E-01      4.122103E-04     463
   7910010       G     -2.094195E-01     -1.458374E-03     -5.228188E+00     464
-CONT-                  3.795498E-03      3.606912E-01     -5.160946E-04     465
   7910011       G      4.093846E-01      7.240787E-04      1.683017E+00     466
-CONT-                 -5.181917E-05      3.596982E-01     -4.118060E-04     467
   7910012       G     -2.094212E-01      1.363052E-03     -5.229010E+00     468
-CONT-                 -3.703201E-03      3.606912E-01      5.155278E-04     469
$TITLE   = MSC.NASTRAN JOB CREATED ON 20-FEB-15 AT 15:37:03                  470
$SUBTITLE=DEFAULT                                                            471
$LABEL   =                                                                   472
$EIGENVECTOR                                                                 473
$REAL OUTPUT                                                                 474
$SUBCASE ID =           1                                                    475
$EIGENVALUE =  2.9651488E+03  MODE =     8                                   476
   7710001       G     -1.010196E-01     -3.063863E-01     -3.751933E+00     477
-CONT-                  2.078848E-01     -4.427293E-03     -4.201084E-03     478
   7710002       G     -9.663604E-02     -2.817345E-01     -3.562086E+00     479
-CONT-                  1.795166E-01      1.138939E-02     -1.779635E-03     480
   7710003       G     -1.668350E-01     -2.998753E-01     -5.732009E+00     481
-CONT-                  1.358813E-01     -3.859596E-02     -1.489297E-03     482
   7710004       G     -1.411727E-01     -2.596096E-01     -5.352060E+00     483
-CONT-                  1.402134E-01     -1.743559E-02     -4.700718E-03     484
   7710005       G     -1.882273E-01     -1.799601E-01     -5.920299E+00     485
-CONT-                 -6.051891E-02     -7.630555E-02      2.440449E-03     486
   7710006       G     -1.571032E-01     -1.961406E-01     -5.743601E+00     487
-CONT-                 -5.546979E-02     -4.754491E-02      1.719072E-03     488
   7710007       G     -1.463538E-01     -5.200642E-02     -3.288843E+00     489
-CONT-                 -2.311985E-01     -1.092626E-01      6.182112E-03     490
   7710008       G     -1.121514E-01     -1.131205E-01     -3.262935E+00     491
-CONT-                 -2.299872E-01     -8.894388E-02      6.013434E-03     492
   7710009       G     -5.305054E-02      5.462394E-02      1.428187E+00     493
-CONT-                 -3.375869E-01     -1.351433E-01      8.433569E-03     494
   7710010       G     -1.725548E-02     -3.238138E-02      1.402314E+00     495
-CONT-                 -3.377157E-01     -1.270070E-01      9.182954E-03     496
   7710011       G      4.487800E-02      1.140634E-01      5.905570E+00     497
-CONT-                 -3.656944E-01     -1.480877E-01      9.899513E-03     498
   7710012       G      8.256431E-02      2.204917E-02      5.902708E+00     499
-CONT-                 -3.680721E-01     -1.473117E-01      1.039036E-02     500
   7810001       G      1.019494E-01     -3.063776E-01      3.761347E+00     501
-CONT-                  2.078867E-01      5.686376E-03     -4.200618E-03     502
   7810002       G      9.722562E-02     -2.817508E-01      3.561757E+00     503
-CONT-                  1.795576E-01     -1.010656E-02     -1.785849E-03     504
   7810003       G      1.679583E-01     -3.000034E-01      5.736711E+00     505
-CONT-                  1.363688E-01      3.980271E-02     -1.528599E-03     506
   7810004       G      1.417870E-01     -2.596896E-01      5.350412E+00     507
-CONT-                  1.404248E-01      1.868981E-02     -4.714446E-03     508
   7810005       G      1.900000E-01     -1.802794E-01      5.922994E+00     509
-CONT-                 -6.013540E-02      7.763806E-02      2.394514E-03     510
   7810006       G      1.582776E-01     -1.965143E-01      5.739403E+00     511
-CONT-                 -5.509945E-02      4.887703E-02      1.677699E-03     512
   7810007       G      1.486535E-01     -5.276859E-02      3.290557E+00     513
-CONT-                 -2.305711E-01      1.103242E-01      6.123585E-03     514
   7810008       G      1.139864E-01     -1.138668E-01      3.258019E+00     515
-CONT-                 -2.293754E-01      9.016654E-02      5.957667E-03     516
   7810009       G      5.616946E-02      5.353784E-02     -1.423905E+00     517
-CONT-                 -3.369069E-01      1.363296E-01      8.378289E-03     518
   7810010       G      1.981929E-02     -3.345615E-02     -1.404815E+00     519
-CONT-                 -3.370456E-01      1.282035E-01      9.128931E-03     520
   7810011       G     -4.114077E-02      1.127263E-01     -5.899080E+00     521
-CONT-                 -3.649982E-01      1.492992E-01      9.843331E-03     522
   7810012       G     -7.939414E-02      2.072382E-02     -5.903143E+00     523
-CONT-                 -3.673868E-01      1.485317E-01      1.033539E-02     524
   7910007       G      1.398556E-03     -5.654555E-01      1.102742E-02     525
-CONT-                  2.106224E-01      6.336754E-04     -5.395282E-03     526
   7910008       G     -1.321426E-05     -2.337276E-01     -5.115690E-03     527
-CONT-                  2.114744E-01      6.325556E-04     -5.711973E-03     528
   7910009       G      5.220619E-02     -3.594590E-01      2.013943E+00     529
-CONT-                  2.103672E-01      5.398851E-04     -5.883995E-03     530
   7910010       G      5.151389E-02     -9.999463E-02      1.996406E+00     531
-CONT-                  2.078558E-01     -8.092747E-05     -4.978442E-03     532
   7910011       G     -5.085044E-02     -3.594602E-01     -1.999818E+00     533
-CONT-                  2.103661E-01      7.256077E-04     -5.883893E-03     534
   7910012       G     -5.233901E-02     -9.999386E-02     -2.006645E+00     535
-CONT-                  2.078556E-01      1.352694E-03     -4.978224E-03     536
$TITLE   = MSC.NASTRAN JOB CREATED ON 20-FEB-15 AT 15:37:03                  537
$SUBTITLE=DEFAULT                                                            538
$LABEL   =                                                                   539
$EIGENVECTOR                                                                 540
$REAL OUTPUT                                                                 541
$SUBCASE ID =           1                                                    542
$EIGENVALUE =  6.9589087E+03  MODE =     9                                   543
   7710001       G      1.931941E-01      8.335399E-03      2.181825E-02     544
-CONT-                 -3.203446E-03      7.369253E-02      2.702509E-04     545
   7710002       G      1.734819E-01      3.473975E-03     -5.579519E-01     546
-CONT-                 -1.128692E-02      7.485278E-02      3.081092E-04     547
   7710003       G      1.766579E-01      2.794668E-02     -1.339084E-01     548
-CONT-                 -3.191705E-02      5.571352E-02     -3.349312E-03     549
   7710004       G      1.642771E-01      3.250571E-03     -4.698324E-01     550
-CONT-                 -3.855376E-02      6.119464E-02     -3.026458E-03     551
   7710005       G      5.851004E-02      1.845160E-02      3.733444E-01     552
-CONT-                 -6.324266E-02      3.116315E-02     -1.055732E-02     553
   7710006       G      6.301419E-02     -4.903054E-02      1.152136E-01     554
-CONT-                 -6.969297E-02      2.682631E-02     -9.351680E-03     555
   7710007       G     -1.415360E-01     -6.297130E-02      1.026346E+00     556
-CONT-                 -3.914970E-02      1.388107E-02     -1.663132E-02     557
   7710008       G     -1.205849E-01     -1.486986E-01      9.101273E-01     558
-CONT-                 -4.708876E-02      1.342254E-03     -1.524130E-02     559
   7710009       G     -4.168694E-01     -2.053798E-01      1.098923E+00     560
-CONT-                  3.273546E-02      2.666388E-03     -2.202218E-02     561
   7710010       G     -3.815033E-01     -2.901108E-01      1.179257E+00     562
-CONT-                  2.035859E-02     -1.699672E-02     -2.092375E-02     563
   7710011       G     -6.869803E-01     -3.463385E-01      4.193945E-01     564
-CONT-                  1.043765E-01     -5.840686E-03     -2.679553E-02     565
   7710012       G     -6.398236E-01     -4.256318E-01      6.793151E-01     566
-CONT-                  8.933660E-02     -2.936873E-02     -2.522070E-02     567
   7810001       G      1.935341E-01     -8.857230E-03      2.288560E-02     568
-CONT-                  3.269553E-03      7.368994E-02     -2.909406E-04     569
   7810002       G      1.738062E-01     -4.126141E-03     -5.569047E-01     570
-CONT-                  1.136475E-02      7.484561E-02     -3.280440E-04     571
   7810003       G      1.771812E-01     -2.856084E-02     -1.320878E-01     572
-CONT-                  3.196766E-02      5.573346E-02      3.346475E-03     573
   7810004       G      1.647692E-01     -3.921893E-03     -4.680662E-01     574
-CONT-                  3.860698E-02      6.119018E-02      3.015154E-03     575
   7810005       G      5.916083E-02     -1.913528E-02      3.758468E-01     576
-CONT-                  6.326996E-02      3.113754E-02      1.054856E-02     577
   7810006       G      6.365127E-02      4.831262E-02      1.178208E-01     578
-CONT-                  6.973228E-02      2.678265E-02      9.343165E-03     579
   7810007       G     -1.407945E-01      6.231317E-02      1.028799E+00     580
-CONT-                  3.907347E-02      1.379892E-02      1.662862E-02     581
   7810008       G     -1.198307E-01      1.479684E-01      9.131036E-01     582
-CONT-                  4.703102E-02      1.245808E-03      1.523264E-02     583
   7810009       G     -4.160725E-01      2.047674E-01      1.099951E+00     584
-CONT-                 -3.294251E-02      2.584721E-03      2.202126E-02     585
   7810010       G     -3.806821E-01      2.894116E-01      1.181100E+00     586
-CONT-                 -2.054980E-02     -1.710692E-02      2.092195E-02     587
   7810011       G     -6.862122E-01      3.457871E-01      4.180453E-01     588
-CONT-                 -1.046858E-01     -5.927771E-03      2.680099E-02     589
   7810012       G     -6.390178E-01      4.249828E-01      6.789967E-01     590
-CONT-                 -8.962830E-02     -2.948543E-02      2.522454E-02     591
   7910007       G      3.069969E-01     -2.036680E-04      7.815342E-01     592
-CONT-                  2.896971E-05      7.681965E-02     -9.346176E-06     593
   7910008       G      1.351981E-01     -3.805258E-04     -1.181871E+00     594
-CONT-                  3.182880E-05      7.677356E-02     -1.019549E-05     595
   7910009       G      2.196903E-01     -1.579000E-03      2.980138E-01     596
-CONT-                 -7.646871E-04      7.732937E-02     -1.834501E-05     597
   7910010       G      8.700530E-02      1.819122E-04     -1.178962E+00     598
-CONT-                  3.414535E-03      7.836128E-02     -1.214549E-03     599
   7910011       G      2.195108E-01      1.119413E-03      2.974566E-01     600
-CONT-                  8.226495E-04      7.732921E-02     -4.793992E-07     601
   7910012       G      8.682370E-02     -9.062500E-04     -1.179522E+00     602
-CONT-                 -3.351479E-03      7.836149E-02      1.194399E-03     603
$TITLE   = MSC.NASTRAN JOB CREATED ON 20-FEB-15 AT 15:37:03                  604
$SUBTITLE=DEFAULT                                                            605
$LABEL   =                                                                   606
$EIGENVECTOR                                                                 607
$REAL OUTPUT                                                                 608
$SUBCASE ID =           1                                                    609
$EIGENVALUE =  7.3549099E+03  MODE =    10                                   610
   7710001       G      2.217748E-01      2.235822E-01     -9.543283E-01     611
-CONT-                  5.382253E-02     -3.885835E-03      1.315929E-02     612
   7710002       G      2.103210E-01      3.375904E-01     -8.965146E-01     613
-CONT-                  3.933020E-02      3.384553E-03      1.406027E-02     614
   7710003       G      3.520625E-01      2.945880E-01     -1.400284E+00     615
-CONT-                  2.744319E-02     -2.605870E-02      1.298200E-02     616
   7710004       G      3.404793E-01      3.664380E-01     -1.246285E+00     617
-CONT-                  1.975082E-02     -2.058783E-02      1.212469E-02     618
   7710005       G      5.001206E-01      3.974052E-01     -1.143496E+00     619
-CONT-                 -2.186905E-02     -6.080782E-02      1.089788E-02     620
   7710006       G      5.020102E-01      4.425227E-01     -9.065257E-01     621
-CONT-                 -2.887416E-02     -6.162765E-02      1.161644E-02     622
   7710007       G      6.178328E-01      4.630209E-01     -2.754302E-01     623
-CONT-                 -3.179340E-02     -9.060197E-02      8.076776E-03     624
   7710008       G      6.343108E-01      4.932364E-01      9.628306E-02     625
-CONT-                 -4.071857E-02     -9.926728E-02      9.222086E-03     626
   7710009       G      6.943027E-01      4.791514E-01      5.160832E-01     627
-CONT-                  1.357115E-02     -1.134509E-01      4.199034E-03     628
   7710010       G      7.251877E-01      5.091855E-01      1.094417E+00     629
-CONT-                 -2.414934E-04     -1.321442E-01      5.506456E-03     630
   7710011       G      7.107735E-01      4.586907E-01      6.112621E-01     631
-CONT-                  8.008661E-02     -1.287037E-01     -2.021053E-04     632
   7710012       G      7.549403E-01      4.941548E-01      1.395825E+00     633
-CONT-                  6.279391E-02     -1.537886E-01      1.604903E-03     634
   7810001       G     -2.216050E-01      2.235689E-01      9.566977E-01     635
-CONT-                  5.383162E-02      4.294559E-03      1.315946E-02     636
   7810002       G     -2.102643E-01      3.375755E-01      8.956610E-01     637
-CONT-                  3.937155E-02     -2.951340E-03      1.405536E-02     638
   7810003       G     -3.518359E-01      2.945034E-01      1.401452E+00     639
-CONT-                  2.755271E-02      2.639713E-02      1.295838E-02     640
   7810004       G     -3.403887E-01      3.663868E-01      1.245415E+00     641
-CONT-                  1.988734E-02      2.097037E-02      1.211658E-02     642
   7810005       G     -4.998217E-01      3.972659E-01      1.145090E+00     643
-CONT-                 -2.167531E-02      6.117087E-02      1.089655E-02     644
   7810006       G     -5.018548E-01      4.424471E-01      9.060692E-01     645
-CONT-                 -2.868127E-02      6.199021E-02      1.161371E-02     646
   7810007       G     -6.175834E-01      4.628576E-01      2.778329E-01     647
-CONT-                 -3.156746E-02      9.093727E-02      8.076186E-03     648
   7810008       G     -6.341791E-01      4.931824E-01     -9.591643E-02     649
-CONT-                 -4.049774E-02      9.961838E-02      9.225075E-03     650
   7810009       G     -6.941436E-01      4.790829E-01     -5.131721E-01     651
-CONT-                  1.369836E-02      1.138174E-01      4.209544E-03     652
   7810010       G     -7.251534E-01      5.092130E-01     -1.093404E+00     653
-CONT-                 -1.046868E-04      1.324894E-01      5.516433E-03     654
   7810011       G     -7.107598E-01      4.587286E-01     -6.090395E-01     655
-CONT-                  8.011981E-02      1.290800E-01     -1.853042E-04     656
   7810012       G     -7.550447E-01      4.942807E-01     -1.395360E+00     657
-CONT-                  6.283947E-02      1.541378E-01      1.620506E-03     658
   7910007       G      3.931505E-04      1.826811E-02      3.244845E-03     659
-CONT-                  5.342264E-02      2.088104E-04      1.254067E-02     660
   7910008       G     -7.192034E-05      4.569080E-01     -2.066948E-03     661
-CONT-                  5.375847E-02      2.081486E-04      1.235763E-02     662
   7910009       G     -1.188428E-01      1.576677E-01      5.118944E-01     663
-CONT-                  5.332473E-02      3.552207E-04      1.233612E-02     664
   7910010       G     -1.189087E-01      4.911871E-01      5.040232E-01     665
-CONT-                  5.086915E-02     -3.529514E-04      1.330407E-02     666
   7910011       G      1.191538E-01      1.576700E-01     -5.080134E-01     667
-CONT-                  5.332591E-02      6.255240E-05      1.233620E-02     668
   7910012       G      1.185022E-01      4.911877E-01     -5.081599E-01     669
-CONT-                  5.086367E-02      7.756655E-04      1.330568E-02     670
$TITLE   = MSC.NASTRAN JOB CREATED ON 20-FEB-15 AT 15:37:03                  671
$SUBTITLE=DEFAULT                                                            672
$LABEL   =                                                                   673
$EIGENVECTOR                                                                 674
$REAL OUTPUT                                                                 675
$SUBCASE ID =           1                                                    676
$EIGENVALUE =  1.7928843E+04  MODE =    11                                   677
   7710001       G      5.655134E-01     -2.777194E-02      6.356129E-01     678
-CONT-                  4.516448E-02     -1.157971E-04     -5.291298E-03     679
   7710002       G      5.781740E-01     -7.717920E-02      8.208492E-01     680
-CONT-                  1.575423E-01     -7.246185E-02     -2.079908E-02     681
   7710003       G      4.506182E-01     -1.717632E-01     -7.226347E-01     682
-CONT-                  2.308704E-01      3.638831E-02     -2.853499E-02     683
   7710004       G      4.779142E-01     -1.923472E-01     -3.916498E-01     684
-CONT-                  1.889299E-01      4.084500E-03     -1.833924E-02     685
   7710005       G     -2.284793E-01     -4.332788E-01     -5.184862E+00     686
-CONT-                  3.258044E-01     -5.951192E-02     -5.406181E-02     687
   7710006       G     -1.097727E-01     -5.471377E-01     -4.314483E+00     688
-CONT-                  3.051566E-01     -5.730585E-02     -5.292488E-02     689
   7710007       G     -1.175894E+00     -5.826596E-01     -7.287437E+00     690
-CONT-                  5.762560E-02     -2.223016E-01     -6.436669E-02     691
   7710008       G     -9.688291E-01     -8.480269E-01     -6.248963E+00     692
-CONT-                  3.678491E-02     -1.876303E-01     -6.289761E-02     693
   7710009       G     -2.188222E+00     -7.384967E-01     -3.967626E+00     694
-CONT-                 -2.687686E-01     -4.092193E-01     -6.806892E-02     695
   7710010       G     -1.917315E+00     -1.123139E+00     -2.630787E+00     696
-CONT-                 -2.968210E-01     -4.019816E-01     -6.167455E-02     697
   7710011       G     -2.957494E+00     -9.561970E-01      1.678350E+00     698
-CONT-                 -3.594043E-01     -5.431387E-01     -6.463241E-02     699
   7710012       G     -2.639210E+00     -1.366480E+00      3.519189E+00     700
-CONT-                 -4.035221E-01     -5.609095E-01     -5.838186E-02     701
   7810001       G      5.637944E-01      2.819428E-02      6.254059E-01     702
-CONT-                 -4.565934E-02     -1.331910E-04      5.378332E-03     703
   7810002       G      5.765199E-01      7.809160E-02      8.107268E-01     704
-CONT-                 -1.578064E-01     -7.235064E-02      2.085810E-02     705
   7810003       G      4.479948E-01      1.719575E-01     -7.339800E-01     706
-CONT-                 -2.291553E-01      3.610189E-02      2.858934E-02     707
   7810004       G      4.754221E-01      1.930905E-01     -4.041825E-01     708
-CONT-                 -1.885109E-01      4.146146E-03      1.841100E-02     709
   7810005       G     -2.301270E-01      4.329368E-01     -5.174976E+00     710
-CONT-                 -3.240546E-01     -5.916728E-02      5.399943E-02     711
   7810006       G     -1.116499E-01      5.471990E-01     -4.309620E+00     712
-CONT-                 -3.034787E-01     -5.687383E-02      5.286141E-02     713
   7810007       G     -1.175854E+00      5.828389E-01     -7.263028E+00     714
-CONT-                 -5.713552E-02     -2.207241E-01      6.434032E-02     715
   7810008       G     -9.696304E-01      8.480605E-01     -6.231229E+00     716
-CONT-                 -3.631925E-02     -1.865282E-01      6.284515E-02     717
   7810009       G     -2.187151E+00      7.388813E-01     -3.951874E+00     718
-CONT-                  2.683531E-01     -4.073059E-01      6.800345E-02     719
   7810010       G     -1.917063E+00      1.123153E+00     -2.622980E+00     720
-CONT-                  2.963057E-01     -4.000713E-01      6.162718E-02     721
   7810011       G     -2.955623E+00      9.565270E-01      1.678455E+00     722
-CONT-                  3.587372E-01     -5.407902E-01      6.457855E-02     723
   7810012       G     -2.638309E+00      1.366383E+00      3.509667E+00     724
-CONT-                  4.027125E-01     -5.585008E-01      5.834651E-02     725
   7910007       G      5.417092E-01      2.003784E-04      6.759782E-01     726
-CONT-                 -3.044011E-04     -1.192095E-02      4.706205E-05     727
   7910008       G      5.573830E-01      7.564429E-04      9.588585E-01     728
-CONT-                 -3.041779E-04     -2.537514E-02      5.046578E-05     729
   7910009       G      5.554099E-01      3.307208E-03      7.652044E-01     730
-CONT-                 -4.151357E-03     -1.464501E-02     -1.657044E-03     731
   7910010       G      5.735346E-01      1.101783E-02      9.907404E-01     732
-CONT-                 -1.071599E-02     -1.585828E-02     -7.689109E-04     733
   7910011       G      5.563133E-01     -2.992290E-03      7.708596E-01     734
-CONT-                  3.568438E-03     -1.465276E-02      1.754433E-03     735
   7910012       G      5.744496E-01     -9.879742E-03      9.963777E-01     736
-CONT-                  1.013119E-02     -1.587247E-02      8.642323E-04     737
$TITLE   = MSC.NASTRAN JOB CREATED ON 20-FEB-15 AT 15:37:03                  738
$SUBTITLE=DEFAULT                                                            739
$LABEL   =                                                                   740
$EIGENVECTOR                                                                 741
$REAL OUTPUT                                                                 742
$SUBCASE ID =           1                                                    743
$EIGENVALUE =  2.4648581E+04  MODE =    12                                   744
   7710001       G      1.348736E+00      8.840769E-02     -7.303487E-02     745
-CONT-                 -2.845714E-02      8.233767E-02     -3.736243E-03     746
   7710002       G      1.337076E+00     -2.395695E-02     -6.776779E-01     747
-CONT-                  3.247306E-02      1.234041E-02     -1.609855E-02     748
   7710003       G      1.100274E+00      1.330626E-01      2.497515E-01     749
-CONT-                 -1.265106E-01      6.318748E-02     -5.329395E-02     750
   7710004       G      1.188033E+00     -1.329319E-01     -3.501116E-01     751
-CONT-                 -1.397968E-01      8.747396E-02     -3.990782E-02     752
   7710005       G     -2.816383E-01     -2.491742E-01      2.490469E+00     753
-CONT-                 -1.752881E-01      4.399522E-02     -1.291980E-01     754
   7710006       G     -8.375696E-02     -8.715617E-01      2.002642E+00     755
-CONT-                 -1.872956E-01      2.282295E-02     -1.212293E-01     756
   7710007       G     -2.465268E+00     -1.159139E+00      3.496833E+00     757
-CONT-                  1.167992E-02      5.985799E-02     -1.781429E-01     758
   7710008       G     -2.179477E+00     -1.947205E+00      3.332151E+00     759
-CONT-                  9.796065E-04      1.887699E-02     -1.721663E-01     760
   7710009       G     -5.146885E+00     -2.331055E+00      1.366709E+00     761
-CONT-                  2.280708E-01      8.216758E-02     -2.032107E-01     762
   7710010       G     -4.810378E+00     -3.169428E+00      1.463526E+00     763
-CONT-                  2.196763E-01      5.733686E-02     -2.013405E-01     764
   7710011       G     -7.409231E+00     -3.268782E+00     -1.853884E+00     765
-CONT-                  2.790852E-01      7.794682E-02     -2.077834E-01     766
   7710012       G     -7.053397E+00     -4.117486E+00     -1.697538E+00     767
-CONT-                  2.767203E-01      8.190096E-02     -2.067848E-01     768
   7810001       G      1.348033E+00     -8.876518E-02     -7.388024E-02     769
-CONT-                  2.844404E-02      8.232486E-02      3.768866E-03     770
   7810002       G      1.336400E+00      2.381485E-02     -6.786351E-01     771
-CONT-                 -3.234886E-02      1.240219E-02      1.611346E-02     772
   7810003       G      1.099282E+00     -1.334260E-01      2.503861E-01     773
-CONT-                  1.267110E-01      6.314461E-02      5.328631E-02     774
   7810004       G      1.187071E+00      1.327149E-01     -3.501647E-01     775
-CONT-                  1.400119E-01      8.751391E-02      3.992791E-02     776
   7810005       G     -2.822964E-01      2.487619E-01      2.495615E+00     777
-CONT-                  1.756000E-01      4.415364E-02      1.291680E-01     778
   7810006       G     -8.454834E-02      8.711583E-01      2.006583E+00     779
-CONT-                  1.875907E-01      2.294537E-02      1.212139E-01     780
   7810007       G     -2.465164E+00      1.158755E+00      3.503238E+00     781
-CONT-                 -1.160126E-02      5.977194E-02      1.780687E-01     782
   7810008       G     -2.179494E+00      1.946434E+00      3.338309E+00     783
-CONT-                 -9.026414E-04      1.892003E-02      1.720782E-01     784
   7810009       G     -5.145307E+00      2.330421E+00      1.370543E+00     785
-CONT-                 -2.284175E-01      8.242987E-02      2.031144E-01     786
   7810010       G     -4.809063E+00      3.168259E+00      1.466881E+00     787
-CONT-                 -2.200564E-01      5.758248E-02      2.012526E-01     788
   7810011       G     -7.406573E+00      3.267845E+00     -1.856293E+00     789
-CONT-                 -2.795681E-01      7.838502E-02      2.076921E-01     790
   7810012       G     -7.051063E+00      4.115976E+00     -1.701066E+00     791
-CONT-                 -2.772611E-01      8.236109E-02      2.067019E-01     792
   7910007       G      1.460579E+00     -3.267272E-04      6.469320E-01     793
-CONT-                 -7.552556E-05      8.035728E-02      1.742637E-05     794
   7910008       G      1.268860E+00      1.109779E-04     -1.452499E+00     795
-CONT-                 -2.021432E-05      7.120967E-02      1.665060E-05     796
   7910009       G      1.369179E+00     -1.757505E-02      1.396412E-01     797
-CONT-                 -1.132411E-02      8.724508E-02     -1.867464E-03     798
   7910010       G      1.224779E+00      1.618500E-02     -1.404787E+00     799
-CONT-                  9.955764E-03      8.489804E-02     -7.141649E-03     800
   7910011       G      1.369559E+00      1.711256E-02      1.401920E-01     801
-CONT-                  1.127036E-02      8.724401E-02      1.907997E-03     802
   7910012       G      1.225143E+00     -1.600603E-02     -1.404206E+00     803
-CONT-                 -1.000521E-02      8.489310E-02      7.182079E-03     804
$TITLE   = MSC.NASTRAN JOB CREATED ON 20-FEB-15 AT 15:37:03                  805
$SUBTITLE=DEFAULT                                                            806
$LABEL   =                                                                   807
$EIGENVECTOR                                                                 808
$REAL OUTPUT                                                                 809
$SUBCASE ID =           1                                                    810
$EIGENVALUE =  2.7930639E+04  MODE =    13                                   811
   7710001       G     -3.217690E-01      1.170730E-02     -1.913674E+00     812
-CONT-                  7.075855E-02      2.299451E-02     -1.816137E-02     813
   7710002       G     -3.168205E-01     -1.281948E-01     -2.003728E+00     814
-CONT-                  8.812348E-02      2.375088E-02     -1.719651E-02     815
   7710003       G     -4.899141E-01      1.384877E-02     -2.334553E+00     816
-CONT-                 -9.834167E-02      9.569963E-02     -1.580926E-02     817
   7710004       G     -4.780259E-01     -1.376721E-01     -3.076615E+00     818
-CONT-                  2.777130E-02      1.621882E-01     -1.770693E-02     819
   7710005       G     -4.864098E-01      1.654572E-01      6.142574E-01     820
-CONT-                 -4.691204E-01      3.625013E-01     -5.209037E-03     821
   7710006       G     -5.928396E-01     -6.920096E-02     -2.111658E+00     822
-CONT-                 -3.781560E-01      4.620748E-01     -1.019839E-02     823
   7710007       G     -3.472152E-01      1.777988E-01      5.049677E+00     824
-CONT-                 -5.420839E-01      6.738159E-01     -6.357388E-04     825
   7710008       G     -5.933868E-01     -5.587934E-02      8.746441E-01     826
-CONT-                 -4.675120E-01      7.171191E-01     -4.413727E-03     827
   7710009       G     -1.683304E-01      6.883723E-02      6.928507E+00     828
-CONT-                 -3.915515E-01      1.022594E+00      3.345550E-03     829
   7710010       G     -5.414247E-01     -1.169323E-01      1.465722E+00     830
-CONT-                 -3.147399E-01      1.060843E+00     -6.653684E-03     831
   7710011       G     -4.999827E-02      1.961150E-03      5.580280E+00     832
-CONT-                 -3.153313E-01      1.300878E+00     -1.913909E-03     833
   7710012       G     -5.282485E-01     -1.723787E-01     -1.031483E+00     834
-CONT-                 -2.248966E-01      1.336624E+00     -1.225187E-02     835
   7810001       G      3.256851E-01      1.174635E-02      1.920284E+00     836
-CONT-                  7.062280E-02     -2.233344E-02     -1.813187E-02     837
   7810002       G      3.206514E-01     -1.277513E-01      2.006547E+00     838
-CONT-                  8.717194E-02     -2.371716E-02     -1.705075E-02     839
   7810003       G      4.930785E-01      1.427508E-02      2.333593E+00     840
-CONT-                 -9.688027E-02     -9.435886E-02     -1.548979E-02     841
   7810004       G      4.809285E-01     -1.364395E-01      3.070978E+00     842
-CONT-                  2.709628E-02     -1.610272E-01     -1.752106E-02     843
   7810005       G      4.866483E-01      1.670291E-01     -6.250819E-01     844
-CONT-                 -4.691280E-01     -3.608234E-01     -4.927099E-03     845
   7810006       G      5.929560E-01     -6.634888E-02      2.092739E+00     846
-CONT-                 -3.782115E-01     -4.602219E-01     -9.916133E-03     847
   7810007       G      3.426962E-01      1.806519E-01     -5.064287E+00     848
-CONT-                 -5.414045E-01     -6.719436E-01     -1.856509E-04     849
   7810008       G      5.888556E-01     -5.098995E-02     -8.989151E-01     850
-CONT-                 -4.667810E-01     -7.152844E-01     -4.015723E-03     851
   7810009       G      1.577022E-01      7.299026E-02     -6.930430E+00     852
-CONT-                 -3.892883E-01     -1.021271E+00      3.776142E-03     853
   7810010       G      5.310633E-01     -1.100192E-01     -1.478345E+00     854
-CONT-                 -3.124797E-01     -1.059387E+00     -6.240637E-03     855
   7810011       G      3.466818E-02      7.672562E-03     -5.560031E+00     856
-CONT-                 -3.126501E-01     -1.299774E+00     -1.491153E-03     857
   7810012       G      5.132536E-01     -1.637571E-01      1.041581E+00     858
-CONT-                 -2.221375E-01     -1.335544E+00     -1.184682E-02     859
   7910007       G      2.295441E-03     -1.850614E-04      6.166879E-03     860
-CONT-                  1.125276E-01      2.634751E-04     -1.912845E-02     861
   7910008       G      1.672538E-03     -2.374090E-01     -5.014461E-04     862
-CONT-                  1.190924E-01      2.144804E-04     -2.033789E-02     863
   7910009       G      1.832324E-01      1.386095E-02      1.094094E+00     864
-CONT-                  1.118317E-01     -3.935021E-03     -1.785685E-02     865
   7910010       G      1.861724E-01     -1.670877E-01      1.106927E+00     866
-CONT-                  1.262843E-01     -4.291261E-03     -2.160519E-02     867
   7910011       G     -1.792337E-01      1.386119E-02     -1.084866E+00     868
-CONT-                  1.118546E-01      4.450722E-03     -1.784112E-02     869
   7910012       G     -1.830972E-01     -1.671769E-01     -1.107705E+00     870
-CONT-                  1.263722E-01      4.807638E-03     -2.159894E-02     871
$TITLE   = MSC.NASTRAN JOB CREATED ON 20-FEB-15 AT 15:37:03                  872
$SUBTITLE=DEFAULT                                                            873
$LABEL   =                                                                   874
$EIGENVECTOR                                                                 875
$REAL OUTPUT                                                                 876
$SUBCASE ID =           1                                                    877
$EIGENVALUE =  3.5773178E+04  MODE =    14                                   878
   7710001       G      1.339901E-01      2.387684E-02     -9.895610E-02     879
-CONT-                 -1.250512E-02     -9.781349E-02     -6.004545E-03     880
   7710002       G      1.748983E-01     -7.961056E-02      9.388751E-01     881
-CONT-                  1.858479E-01     -2.239177E-01     -2.618336E-02     882
   7710003       G      7.995272E-02     -6.694697E-02     -2.698985E-01     883
-CONT-                  5.559974E-02      1.082770E-01     -3.145728E-02     884
   7710004       G      1.002078E-01     -2.212811E-01     -6.799145E-01     885
-CONT-                  1.978387E-01      1.404434E-01     -1.776848E-02     886
   7710005       G     -3.054958E-01     -1.355165E-01     -1.634440E+00     887
-CONT-                 -1.725545E-01      4.643755E-01     -4.608724E-02     888
   7710006       G     -3.690283E-01     -4.528225E-01     -4.348220E+00     889
-CONT-                 -4.999757E-02      6.080204E-01     -5.352914E-02     890
   7710007       G     -8.381808E-01     -1.609811E-01      8.233558E-02     891
-CONT-                 -5.874946E-01      7.789050E-01     -5.030074E-02     892
   7710008       G     -1.017891E+00     -6.497978E-01     -4.841051E+00     893
-CONT-                 -4.861553E-01      9.078829E-01     -5.625335E-02     894
   7710009       G     -1.372130E+00     -2.875585E-01      5.177372E+00     895
-CONT-                 -8.659855E-01      1.095635E+00     -4.631160E-02     896
   7710010       G     -1.680032E+00     -8.726813E-01     -1.612765E+00     897
-CONT-                 -7.714100E-01      1.183340E+00     -5.425542E-02     898
   7710011       G     -1.767007E+00     -4.843440E-01      9.473130E+00     899
-CONT-                 -9.057849E-01      1.369026E+00     -4.875033E-02     900
   7710012       G     -2.187601E+00     -1.092800E+00      1.433483E+00     901
-CONT-                 -8.166112E-01      1.406874E+00     -5.684812E-02     902
   7810001       G      1.328875E-01     -2.446272E-02     -8.619171E-02     903
-CONT-                  1.315530E-02     -9.757638E-02      6.119400E-03     904
   7810002       G      1.738481E-01      8.010161E-02      9.503370E-01     905
-CONT-                 -1.861458E-01     -2.240905E-01      2.635776E-02     906
   7810003       G      7.862561E-02      6.756157E-02     -2.567614E-01     907
-CONT-                 -5.726034E-02      1.090823E-01      3.137031E-02     908
   7810004       G      9.869853E-02      2.223612E-01     -6.717197E-01     909
-CONT-                 -1.985742E-01      1.416379E-01      1.774777E-02     910
   7810005       G     -3.074386E-01      1.368748E-01     -1.646125E+00     911
-CONT-                  1.720024E-01      4.670869E-01      4.617768E-02     912
   7810006       G     -3.716539E-01      4.546496E-01     -4.372631E+00     913
-CONT-                  4.884702E-02      6.114411E-01      5.367037E-02     914
   7810007       G     -8.398828E-01      1.609753E-01      6.367559E-02     915
-CONT-                  5.901386E-01      7.830721E-01      5.022494E-02     916
   7810008       G     -1.021102E+00      6.508608E-01     -4.885363E+00     917
-CONT-                  4.882196E-01      9.129094E-01      5.627062E-02     918
   7810009       G     -1.372122E+00      2.854012E-01      5.191163E+00     919
-CONT-                  8.716558E-01      1.100790E+00      4.618025E-02     920
   7810010       G     -1.682118E+00      8.722305E-01     -1.634326E+00     921
-CONT-                  7.766482E-01      1.189064E+00      5.415158E-02     922
   7810011       G     -1.764931E+00      4.811227E-01      9.528956E+00     923
-CONT-                  9.121923E-01      1.375150E+00      4.860269E-02     924
   7810012       G     -2.188105E+00      1.091465E+00      1.448909E+00     925
-CONT-                  8.226978E-01      1.413140E+00      5.672419E-02     926
   7910007       G     -1.256970E-01     -1.251767E-03     -1.597137E+00     927
-CONT-                  3.388514E-04     -1.501947E-01      3.311090E-05     928
   7910008       G      1.967751E-01      4.779923E-04      2.193367E+00     929
-CONT-                  3.438107E-04     -1.630524E-01      3.964745E-05     930
   7910009       G      4.649426E-02     -6.779572E-03     -6.389132E-01     931
-CONT-                 -2.854757E-03     -1.462898E-01     -3.924281E-03     932
   7910010       G      2.981173E-01      1.767553E-02      2.229322E+00     933
-CONT-                 -3.885595E-02     -1.678684E-01      5.926983E-03     934
   7910011       G      4.716560E-02      5.560373E-03     -6.459571E-01     935
-CONT-                  3.580898E-03     -1.462945E-01      3.976360E-03     936
   7910012       G      2.988007E-01     -1.623076E-02      2.222513E+00     937
-CONT-                  3.939363E-02     -1.678231E-01     -5.816494E-03     938
$TITLE   = MSC.NASTRAN JOB CREATED ON 20-FEB-15 AT 15:37:03                  939
$SUBTITLE=DEFAULT                                                            940
$LABEL   =                                                                   941
$EIGENVECTOR                                                                 942
$REAL OUTPUT                                                                 943
$SUBCASE ID =           1                                                    944
$EIGENVALUE =  3.9547717E+04  MODE =    15                                   945
   7710001       G      1.699760E-02      2.995220E-01      3.869649E+00     946
-CONT-                 -2.034821E-01      4.213868E-02     -7.473272E-03     947
   7710002       G      2.695647E-02      1.708515E-01      3.693060E+00     948
-CONT-                 -9.488134E-03     -8.385530E-02     -2.567007E-02     949
   7710003       G      3.827992E-02      1.006500E-01      4.461562E+00     950
-CONT-                  7.435188E-02      2.520723E-01     -2.005480E-02     951
   7710004       G     -4.198873E-02      2.501312E-02      3.571726E+00     952
-CONT-                  1.460254E-01      2.136692E-01     -6.249986E-03     953
   7710005       G     -9.670394E-02     -1.174630E-01     -9.542638E-01     954
-CONT-                  2.352583E-01      5.002143E-01     -1.680624E-02     955
   7710006       G     -2.318695E-01     -1.445698E-01     -2.977380E+00     956
-CONT-                  3.166053E-01      5.919531E-01     -2.538435E-02     957
   7710007       G     -2.096561E-01      1.092956E-01     -4.441382E+00     958
-CONT-                 -2.799319E-01      6.276776E-01     -4.514744E-03     959
   7710008       G     -4.064734E-01     -5.619583E-02     -8.171220E+00     960
-CONT-                 -2.086208E-01      7.804158E-01     -1.242544E-02     961
   7710009       G     -1.371630E-01      4.992011E-01      4.582799E-01     962
-CONT-                 -9.412031E-01      6.957975E-01      9.496252E-03     963
   7710010       G     -4.058599E-01      1.741419E-01     -4.701542E+00     964
-CONT-                 -8.835090E-01      7.953248E-01      7.748882E-03     965
   7710011       G      6.037305E-02      6.707660E-01      8.679655E+00     966
-CONT-                 -1.120992E+00      7.825325E-01      1.464291E-02     967
   7710012       G     -2.650388E-01      3.038527E-01      2.945598E+00     968
-CONT-                 -1.091685E+00      7.981851E-01      1.400976E-02     969
   7810001       G     -1.975286E-02      2.994134E-01     -3.881730E+00     970
-CONT-                 -2.033360E-01     -4.421707E-02     -7.465533E-03     971
   7810002       G     -2.907805E-02      1.711177E-01     -3.687375E+00     972
-CONT-                 -1.025344E-02      8.111725E-02     -2.556379E-02     973
   7810003       G     -4.125169E-02      1.010330E-01     -4.467710E+00     974
-CONT-                  7.380447E-02     -2.525294E-01     -1.979910E-02     975
   7810004       G      3.949594E-02      2.592284E-02     -3.572880E+00     976
-CONT-                  1.445289E-01     -2.142610E-01     -6.144694E-03     977
   7810005       G      9.325094E-02     -1.175045E-01      9.472674E-01     978
-CONT-                  2.363347E-01     -4.987463E-01     -1.673154E-02     979
   7810006       G      2.281874E-01     -1.435483E-01      2.960263E+00     980
-CONT-                  3.168974E-01     -5.896605E-01     -2.524508E-02     981
   7810007       G      2.062682E-01      1.082401E-01      4.449616E+00     982
-CONT-                 -2.766978E-01     -6.247817E-01     -4.482536E-03     983
   7810008       G      4.022890E-01     -5.563404E-02      8.157710E+00     984
-CONT-                 -2.060158E-01     -7.765101E-01     -1.237058E-02     985
   7810009       G      1.350722E-01      4.980250E-01     -4.236632E-01     986
-CONT-                 -9.373833E-01     -6.901688E-01      9.467763E-03     987
[...]
-CONT-                 -3.584592E-01     -1.580326E-01      4.688284E-02    3105
   7710009       G      9.481796E-02      1.010610E-01      3.535694E+00    3106
-CONT-                 -5.466983E-02      4.328129E-01      1.396600E-01    3107
   7710010       G     -2.395024E-01      5.667141E-01      1.693337E+00    3108
-CONT-                 -7.646661E-02      2.532931E-01      1.055745E-01    3109
   7710011       G      1.261736E+00      1.198589E-01     -1.928503E+00    3110
-CONT-                  8.065070E-01      3.885085E-02      1.117593E-01    3111
   7710012       G      1.017317E+00      9.871190E-01     -8.437731E-02    3112
-CONT-                  2.969780E-01     -3.333364E-01      1.712017E-01    3113
   7810001       G     -1.340392E-02     -3.895252E-01      1.339975E+00    3114
-CONT-                  3.250450E-01     -5.362717E-02      1.393757E-02    3115
   7810002       G      3.060274E-01     -2.113063E-01      3.285767E+00    3116
-CONT-                  2.717686E-01     -1.076484E+00      1.835092E-02    3117
   7810003       G     -1.566890E-01     -2.658476E-01      4.360786E+00    3118
-CONT-                  5.307227E-02      1.633868E-01      4.229734E-02    3119
   7810004       G     -1.539759E-01     -6.810971E-02      3.706949E+00    3120
-CONT-                 -1.681169E-01      4.601304E-02      3.428359E-02    3121
   7810005       G     -1.057957E+00      4.373713E-01     -2.269172E+00    3122
-CONT-                 -6.624634E-01     -4.959204E-02      3.331030E-02    3123
   7810006       G     -9.784351E-01      3.569320E-01     -7.859227E-01    3124
-CONT-                 -5.736891E-01     -7.005168E-04      5.181817E-02    3125
   7810007       G     -1.142476E+00     -1.720715E-01     -2.042238E+00    3126
-CONT-                  4.378308E-01     -3.880644E-01     -4.210988E-02    3127
   7810008       G     -1.060238E+00     -2.023787E-01     -1.322096E+00    3128
-CONT-                  3.964567E-01     -1.907969E-01     -5.541159E-02    3129
   7810009       G      3.388427E-01     -3.787624E-01      4.181372E+00    3130
-CONT-                  1.126734E-01      5.070703E-01     -1.084312E-01    3131
   7810010       G      3.213980E-02     -6.836131E-01      1.948344E+00    3132
-CONT-                  1.243180E-01      3.003677E-01     -7.334885E-02    3133
   7810011       G      9.796084E-01     -1.021811E-01     -2.029043E+00    3134
-CONT-                 -9.545174E-01      8.774375E-02     -5.880544E-02    3135
   7810012       G      7.999390E-01     -8.100152E-01     -7.236206E-03    3136
-CONT-                 -3.518413E-01     -3.586515E-01     -1.319715E-01    3137
   7910007       G      2.273131E-01     -2.944324E-02      6.106494E-02    3138
-CONT-                 -6.179813E-03      2.542293E-02      6.248342E-03    3139
   7910008       G      2.126764E-01      1.139393E-01     -4.988644E-01    3140
-CONT-                 -1.750415E-02      8.765934E-02      9.208665E-03    3141
   7910009       G      1.226707E-01     -9.356107E-02     -2.227027E-01    3142
-CONT-                 -2.643497E-02      6.531399E-02      1.961431E-02    3143
   7910010       G      1.131019E-01      7.020515E-02     -5.664392E-01    3144
-CONT-                  2.724539E-01      1.462870E-01     -3.476402E-02    3145
   7910011       G      2.470128E-01      9.168690E-02     -2.861340E-02    3146
-CONT-                  2.414453E-02      6.042963E-02     -3.191977E-03    3147
   7910012       G      2.340316E-01      1.354657E-01     -4.084020E-01    3148
-CONT-                 -2.475294E-01      1.117074E-01      4.567959E-02    3149
$TITLE   = MSC.NASTRAN JOB CREATED ON 20-FEB-15 AT 15:37:03                 3150
$SUBTITLE=DEFAULT                                                           3151
$LABEL   =                                                                  3152
$EIGENVECTOR                                                                3153
$REAL OUTPUT                                                                3154
$SUBCASE ID =           1                                                   3155
$EIGENVALUE =  1.0792865E+06  MODE =    48                                  3156
   7710001       G     -1.280382E-01      3.317925E-02     -5.457082E-02    3157
-CONT-                 -2.630571E-02      2.190389E-02     -2.822935E-03    3158
   7710002       G     -2.466653E-01      1.761288E-02     -1.029920E+00    3159
-CONT-                 -1.631434E-01      4.435304E-01      2.263586E-02    3160
   7710003       G     -1.187129E-01      5.371446E-02      3.109980E-01    3161
-CONT-                 -5.719923E-02      3.366672E-02      6.562390E-03    3162
   7710004       G     -1.416711E-01      6.011494E-02      7.192477E-02    3163
-CONT-                 -5.549237E-02      2.160978E-02      3.859975E-03    3164
   7710005       G      3.056983E-02      6.240385E-02      8.913210E-02    3165
-CONT-                  5.018536E-02      3.645202E-02      1.117511E-02    3166
   7710006       G      1.736081E-03      1.207672E-01      3.287534E-02    3167
-CONT-                  4.085678E-02      2.397676E-02      9.458108E-03    3168
   7710007       G      1.077517E-01      1.729979E-01     -3.410268E-01    3169
-CONT-                 -7.846239E-03     -2.934623E-02      2.648998E-03    3170
   7710008       G      1.142647E-01      1.813865E-01     -2.624918E-01    3171
-CONT-                 -1.464037E-02     -8.721546E-04      4.620108E-03    3172
   7710009       G      7.642636E-02      2.010333E-01      3.181059E-01    3173
-CONT-                 -3.667166E-02      3.249165E-02     -1.053732E-02    3174
   7710010       G      8.375876E-02      1.406434E-01      1.461167E-01    3175
-CONT-                 -3.150035E-02      1.283232E-02     -1.055450E-02    3176
   7710011       G     -1.202493E-01      7.030215E-02     -5.539223E-02    3177
-CONT-                  8.049890E-02      2.592827E-02     -2.025771E-02    3178
   7710012       G     -9.742366E-02      1.855412E-02      3.307537E-02    3179
-CONT-                  3.765014E-02     -3.844734E-03     -1.497743E-02    3180
   7810001       G     -1.128622E-01     -4.556118E-02     -4.440015E-02    3181
-CONT-                  2.718122E-02      2.190689E-02      2.320598E-03    3182
   7810002       G     -2.267084E-01     -3.177351E-02     -9.846669E-01    3183
-CONT-                  1.549808E-01      4.218906E-01     -2.170208E-02    3184
   7810003       G     -1.066901E-01     -6.714430E-02      3.147110E-01    3185
-CONT-                  5.505476E-02      3.462818E-02     -5.173635E-03    3186
   7810004       G     -1.274730E-01     -6.964687E-02      7.478812E-02    3187
-CONT-                  5.397315E-02      2.252871E-02     -2.719938E-03    3188
   7810005       G      5.118589E-03     -6.468441E-02      7.325582E-02    3189
-CONT-                 -5.011266E-02      3.507872E-02     -8.774176E-03    3190
   7810006       G     -1.972922E-02     -1.137801E-01      2.177732E-02    3191
-CONT-                 -4.049889E-02      2.372666E-02     -7.037256E-03    3192
   7810007       G      6.423280E-02     -1.650888E-01     -3.272241E-01    3193
-CONT-                  1.006776E-02     -2.875331E-02     -2.755297E-03    3194
   7810008       G      7.042573E-02     -1.732313E-01     -2.545978E-01    3195
-CONT-                  1.650802E-02     -1.043611E-03     -4.513652E-03    3196
   7810009       G      5.835437E-02     -1.957477E-01      3.204170E-01    3197
-CONT-                  3.399744E-02      3.288198E-02      7.155280E-03    3198
   7810010       G      6.047436E-02     -1.497110E-01      1.505895E-01    3199
-CONT-                  2.967139E-02      1.299206E-02      7.555450E-03    3200
   7810011       G     -9.423213E-02     -8.288538E-02     -6.865969E-02    3201
-CONT-                 -8.043251E-02      2.368740E-02      1.587248E-02    3202
   7810012       G     -7.801364E-02     -5.008381E-02      2.798222E-02    3203
-CONT-                 -3.758511E-02     -5.628214E-03      1.076340E-02    3204
   7910007       G     -8.466578E-02     -2.463798E-04     -1.783639E-02    3205
-CONT-                  6.429294E-04      1.091928E-02     -4.115010E-04    3206
   7910008       G     -1.105506E-01     -1.086262E-02     -3.656081E-01    3207
-CONT-                  1.748021E-04      7.105508E-03     -4.120584E-04    3208
   7910009       G     -8.433368E-02     -2.999837E-02     -6.885683E-02    3209
-CONT-                 -3.539332E-03      1.435250E-02     -4.138802E-04    3210
   7910010       G     -1.076435E-01     -5.273944E-03     -3.960710E-01    3211
-CONT-                  2.386465E-02      1.155304E-01     -3.935848E-03    3212
   7910011       G     -9.237790E-02      2.405003E-02     -7.252949E-02    3213
-CONT-                  3.199556E-03      1.404001E-02     -4.654265E-04    3214
   7910012       G     -1.156644E-01     -1.617349E-02     -4.018653E-01    3215
-CONT-                 -2.263254E-02      1.169595E-01      2.556354E-03    3216
$TITLE   = MSC.NASTRAN JOB CREATED ON 20-FEB-15 AT 15:37:03                 3217
$SUBTITLE=DEFAULT                                                           3218
$LABEL   =                                                                  3219
$EIGENVECTOR                                                                3220
$REAL OUTPUT                                                                3221
$SUBCASE ID =           1                                                   3222
$EIGENVALUE =  1.0815347E+06  MODE =    49                                  3223
   7710001       G      4.989504E-01      4.215428E-01      3.563504E-01    3224
-CONT-                 -5.525710E-03      1.236580E-03      1.635315E-02    3225
   7710002       G      6.788351E-01      4.888349E-01      1.682891E+00    3226
-CONT-                  3.271868E-01     -7.850317E-01     -3.755565E-02    3227
   7710003       G      3.907124E-01      4.479339E-01     -2.014120E-01    3228
-CONT-                  9.990866E-02      1.344540E-02     -4.436320E-02    3229
   7710004       G      4.656050E-01      3.370798E-01     -1.193943E-01    3230
-CONT-                  7.118489E-02      2.759771E-02     -3.652012E-02    3231
   7710005       G     -7.882073E-01      1.570587E-01     -4.726679E-01    3232
-CONT-                 -5.537573E-02     -6.018973E-02     -7.678689E-02    3233
   7710006       G     -6.551995E-01     -1.557540E-01     -3.544107E-01    3234
-CONT-                 -5.757283E-02     -1.976121E-02     -7.550119E-02    3235
   7710007       G     -1.372833E+00     -2.124787E-01      7.094489E-01    3236
-CONT-                 -5.399550E-02      4.544416E-02      7.143673E-04    3237
   7710008       G     -1.386014E+00     -2.299299E-01      4.549036E-01    3238
-CONT-                 -3.853958E-02      7.516795E-04     -7.681670E-03    3239
   7710009       G     -6.454014E-01     -1.539218E-01     -2.484902E-01    3240
-CONT-                  1.062594E-01     -2.019834E-02      1.033273E-01    3241
   7710010       G     -7.955898E-01      2.975487E-01     -3.415611E-02    3242
-CONT-                  7.781687E-02     -5.156556E-03      9.225785E-02    3243
   7710011       G      7.582342E-01      4.692081E-01     -2.852883E-01    3244
-CONT-                 -8.472216E-02     -8.351194E-02      1.403670E-01    3245
   7710012       G      5.532917E-01      1.039102E+00     -1.692905E-01    3246
-CONT-                 -4.029364E-02     -4.210538E-02      1.302613E-01    3247
   7810001       G     -4.946670E-01      4.183040E-01     -3.457002E-01    3248
-CONT-                 -2.972560E-03      1.798346E-03      1.652481E-02    3249
   7810002       G     -6.824912E-01      4.880205E-01     -1.745383E+00    3250
-CONT-                  3.369307E-01      8.142278E-01     -3.882117E-02    3251
   7810003       G     -3.880915E-01      4.440280E-01      2.368184E-01    3252
-CONT-                  1.037640E-01     -8.724743E-03     -4.407441E-02    3253
   7810004       G     -4.642050E-01      3.352966E-01      1.293504E-01    3254
-CONT-                  7.549207E-02     -2.451804E-02     -3.621933E-02    3255
   7810005       G      7.842653E-01      1.604194E-01      4.709321E-01    3256
-CONT-                 -6.031415E-02      6.303520E-02     -7.655554E-02    3257
   7810006       G      6.505559E-01     -1.529563E-01      3.499853E-01    3258
-CONT-                 -6.138013E-02      2.198179E-02     -7.508145E-02    3259
   7810007       G      1.366906E+00     -2.127264E-01     -7.360357E-01    3260
-CONT-                 -5.204201E-02     -4.800510E-02      4.754267E-04    3261
   7810008       G      1.380442E+00     -2.309206E-01     -4.766232E-01    3262
-CONT-                 -3.603206E-02     -1.060552E-03     -8.073504E-03    3263
   7810009       G      6.493063E-01     -1.570813E-01      2.813558E-01    3264
-CONT-                  1.083094E-01      2.360621E-02      1.026526E-01    3265
   7810010       G      7.975314E-01      2.929264E-01      5.177930E-02    3266
-CONT-                  7.981438E-02      6.334302E-03      9.174223E-02    3267
   7810011       G     -7.512561E-01      4.701733E-01      2.712845E-01    3268
-CONT-                 -9.293411E-02      8.469543E-02      1.401320E-01    3269
   7810012       G     -5.473635E-01      1.035414E+00      1.696327E-01    3270
-CONT-                 -4.409494E-02      4.062608E-02      1.295780E-01    3271
   7910007       G      3.685883E-03      6.603211E-02      1.235195E-02    3272
-CONT-                 -3.360948E-02      1.128745E-03      2.788540E-02    3273
   7910008       G      1.890397E-04      7.534919E-01     -1.584695E-02    3274
-CONT-                 -3.225828E-02     -2.843022E-04      3.080382E-02    3275
   7910009       G     -2.629160E-01      2.326061E-01     -2.087727E-01    3276
-CONT-                  7.529257E-03     -5.968944E-03      2.882168E-02    3277
   7910010       G     -2.694366E-01      7.360214E-01     -3.138823E-01    3278
-CONT-                 -3.562901E-02      7.697463E-02      4.097718E-02    3279
   7910011       G      2.675520E-01      2.336863E-01      2.196231E-01    3280
-CONT-                  7.776566E-03      8.196179E-03      2.903044E-02    3281
   7910012       G      2.703119E-01      7.354881E-01      2.804691E-01    3282
-CONT-                 -3.697698E-02     -6.681503E-02      4.173198E-02    3283
$TITLE   = MSC.NASTRAN JOB CREATED ON 20-FEB-15 AT 15:37:03                 3284
$SUBTITLE=DEFAULT                                                           3285
$LABEL   =                                                                  3286
$EIGENVECTOR                                                                3287
$REAL OUTPUT                                                                3288
$SUBCASE ID =           1                                                   3289
$EIGENVALUE =  1.1527086E+06  MODE =    50                                  3290
   7710001       G      1.219094E+00      2.083756E-01     -2.092951E-01    3291
-CONT-                 -9.859125E-02      9.037927E-02      4.239613E-02    3292
   7710002       G      8.776564E-01      3.012078E-01     -2.727441E+00    3293
-CONT-                 -1.875922E-02      8.063375E-01      4.591934E-02    3294
   7710003       G      1.217340E+00      4.642296E-01      1.292960E+00    3295
-CONT-                 -3.166386E-01      2.046855E-01     -8.059118E-02    3296
   7710004       G      1.280520E+00      1.207496E-01     -1.550293E-01    3297
-CONT-                 -3.642432E-01      1.498528E-01     -5.617300E-02    3298
   7710005       G     -1.075751E+00     -7.984032E-01      4.199580E-01    3299
-CONT-                  2.570605E-01      2.330498E-01     -1.522115E-01    3300
   7710006       G     -9.424674E-01     -1.303084E+00      9.311920E-03    3301
-CONT-                  2.268367E-01      1.474517E-01     -1.667080E-01    3302
   7710007       G     -2.402393E+00     -1.352662E+00     -1.395876E+00    3303
-CONT-                 -1.423890E-01     -1.135829E-01      1.761342E-02    3304
   7710008       G     -2.391054E+00     -1.336143E+00     -1.511405E+00    3305
-CONT-                 -2.010217E-01      8.178782E-02      6.601061E-03    3306
   7710009       G     -4.772471E-01     -1.058293E+00      1.991930E+00    3307
-CONT-                 -3.042751E-02      1.869449E-01      2.287337E-01    3308
   7710010       G     -8.724154E-01     -1.717547E-01      1.441851E+00    3309
-CONT-                 -6.007864E-02     -3.017842E-02      2.080523E-01    3310
   7710011       G      2.241425E+00     -3.864373E-01     -1.646253E+00    3311
-CONT-                  5.559251E-01     -5.862622E-02      2.655324E-01    3312
   7710012       G      1.811680E+00      9.813965E-01     -2.374931E-01    3313
-CONT-                  3.011357E-01     -1.417027E-01      2.729976E-01    3314
   7810001       G     -1.215668E+00      2.092589E-01      2.082656E-01    3315
-CONT-                 -9.905897E-02     -8.808640E-02      4.251021E-02    3316
   7810002       G     -8.821227E-01      3.035328E-01      2.662955E+00    3317
-CONT-                 -1.473007E-02     -7.784000E-01      4.507182E-02    3318
   7810003       G     -1.215640E+00      4.636587E-01     -1.295453E+00    3319
-CONT-                 -3.104812E-01     -2.022204E-01     -8.018731E-02    3320
   7810004       G     -1.279636E+00      1.217147E-01      1.357897E-01    3321
-CONT-                 -3.595348E-01     -1.475604E-01     -5.592672E-02    3322
   7810005       G      1.077440E+00     -7.950634E-01     -3.987093E-01    3323
-CONT-                  2.562100E-01     -2.292869E-01     -1.521982E-01    3324
   7810006       G      9.426673E-01     -1.299989E+00      7.367990E-04    3325
-CONT-                  2.260377E-01     -1.461852E-01     -1.665992E-01    3326
   7810007       G      2.403211E+00     -1.348913E+00      1.374004E+00    3327
-CONT-                 -1.433510E-01      1.117906E-01      1.734245E-02    3328
   7810008       G      2.392124E+00     -1.333690E+00      1.492736E+00    3329
-CONT-                 -2.010595E-01     -8.032746E-02      6.375320E-03    3330
   7810009       G      4.826897E-01     -1.057873E+00     -1.977728E+00    3331
-CONT-                 -2.803482E-02     -1.854559E-01      2.286271E-01    3332
   7810010       G      8.772251E-01     -1.712724E-01     -1.433503E+00    3333
-CONT-                 -5.817699E-02      2.929682E-02      2.077525E-01    3334
   7810011       G     -2.237311E+00     -3.808170E-01      1.635680E+00    3335
-CONT-                  5.498128E-01      5.957907E-02      2.657060E-01    3336
   7810012       G     -1.807505E+00      9.854270E-01      2.376363E-01    3337
-CONT-                  2.976100E-01      1.410036E-01      2.730491E-01    3338
   7910007       G      2.124582E-03     -6.831106E-01      7.943552E-03    3339
-CONT-                  1.583389E-02      5.309175E-04      6.174321E-02    3340
   7910008       G     -4.062520E-04      8.733048E-01     -4.657715E-03    3341
-CONT-                  7.619776E-02     -1.701706E-03      4.683280E-02    3342
   7910009       G     -5.941908E-01     -2.327876E-01      2.432263E-01    3343
-CONT-                  4.230491E-02     -1.952344E-02      8.129679E-02    3344
   7910010       G     -5.149278E-01      8.752330E-01      5.185448E-01    3345
-CONT-                  9.847059E-02     -1.267049E-01      9.788693E-02    3346
   7910011       G      5.970042E-01     -2.330605E-01     -2.340672E-01    3347
-CONT-                  4.236157E-02      2.016288E-02      8.151201E-02    3348
   7910012       G      5.161603E-01      8.738821E-01     -5.255140E-01    3349
-CONT-                  1.013920E-01      1.291144E-01      9.760259E-02    3350
