$ field entries left justified for clarity
$ cbar entry line 1: vector v is z direction 
$ cbar entry line 2: w3a and w3b that is fields 6 and 9
$ rename t-box as hatdim2
$ 
ID MSC  DSOUG4 $ v2004 ehj 25-Jun-2003
$ Modified 31-May-2007 v2007 S_NATARAJAN
TIME  10
SOL 200       $  OPTIMIZATION
CEND
$
TITLE  = STATIC ANALYSIS OF A STIFFENED PLATE                  DSOUG4
ECHO   =  none
$ DISP   = ALL
$ STRESS = ALL
SPC    = 1
ANALYSIS = STATICS
DSAPRT(END=LAST)=ALL 
DESOBJ(MIN) = 15     $ OBJECTIVE FUNCTION DEFINITION
$                      (MIN IS THE DEFAULT)
SUBCASE 1
   LABEL  = LOAD CONDITION 1
   LOAD   = 1
   DESSUB = 100       $ CONSTRAINT DEFININITION
SUBCASE 2
   LABEL  = LOAD CONDITION 2
   LOAD   = 2
   DESSUB = 200       $ CONSTRAINT DEFININITION
BEGIN BULK
param	post	-1
PARAM	NASPRT	1
$
$------------------------------------------------------------------------
$ ANALYSIS MODEL:
$------------------------------------------------------------------------
$
GRID    10000           0.0     0.0     0.0
GRID    10001           2.5     0.0     0.0
GRID    10002           5.0     0.0     0.0
GRID    10003           7.5     0.0     0.0
GRID    10004           10.0    0.0     0.0
GRID    10100           0.0     2.5     0.0
GRID    10101           2.5     2.5     0.0
GRID    10102           5.0     2.5     0.0
GRID    10103           7.5     2.5     0.0
GRID    10104           10.0    2.5     0.0
GRID    10200           0.0     5.0     0.0
GRID    10201           2.5     5.0     0.0
GRID    10202           5.0     5.0     0.0
GRID    10203           7.5     5.0     0.0
GRID    10204           10.0    5.0     0.0
GRID    10300           0.0     7.5     0.0
GRID    10301           2.5     7.5     0.0
GRID    10302           5.0     7.5     0.0
GRID    10303           7.5     7.5     0.0
GRID    10304           10.0    7.5     0.0
$ ... 5 like lines cut
$
CQUAD4    1     1       10000   10001   10101   10100
CQUAD4    2     1       10001   10002   10102   10101
CQUAD4    3     1       10002   10003   10103   10102
CQUAD4    4     1       10003   10004   10104   10103
CQUAD4    5     1       10100   10101   10201   10200
CQUAD4    6     1       10101   10102   10202   10201
CQUAD4    7     1       10102   10103   10203   10202
CQUAD4    8     1       10103   10104   10204   10203
CQUAD4    9     1       10200   10201   10301   10300
CQUAD4   10     1       10201   10202   10302   10301
CQUAD4   11     1       10202   10203   10303   10302
CQUAD4   12     1       10203   10204   10304   10303
CQUAD4   13     1       10300   10301   10401   10400
CQUAD4   14     1       10301   10302   10402   10401
CQUAD4   15     1       10302   10303   10403   10402
CQUAD4   16     1       10303   10304   10404   10403
$
$11111112222222233333333444444445555555566666666777777778888888899999999
CBAR    31      3       10200   10201   0.0     0.0     1.0
                                        1.575                   1.575
CBAR    32      3       10201   10202   0.0     0.0     1.0
                                        1.575                   1.575
CBAR    33      3       10202   10203   0.0     0.0     1.0
                                        1.575                   1.575
CBAR    34      3       10203   10204   0.0     0.0     1.0
                                        1.575                   1.575
$
PSHELL  1       1       0.15    1
PSHELL  2       1       0.2     1
$11111112222222233333333444444445555555566666666777777778888888899999999
PBARL   3       1               hat
        3.0     0.1     2.0     0.9
$
MAT1    1       1.0E+7          0.33    0.283
$
FORCE   1       10004           2000.0  1.0     0.0     0.0
FORCE   1       10104           2000.0  1.0     0.0     0.0
FORCE   1       10204           2000.0  1.0     0.0     0.0
FORCE   1       10304           2000.0  1.0     0.0     0.0
FORCE   1       10404           2000.0  1.0     0.0     0.0
FORCE   2       10203           10000.0 0.0     0.0     1.0
PLOAD2  1       50.     1       THRU    16
$
SPC1    1       1236    10000
SPC1    1       136     10100   10300   10400
SPC1    1       36      10001   10002   10003   10004   10104
SPC1    1       36      10401   10402   10403   10404   10304
SPC1    1       3       10204
SPC1    1       13      10200
SPC1    1       6       10101   10102   10103   10104
SPC1    1       6       10301   10302   10303   10304
$
PARAM   GRDPNT   1
PARAM   WTMASS   0.00259
PARAM   AUTOSPC  YES
$
$------------------------------------------------------------------------
$ DESIGN MODEL:
$------------------------------------------------------------------------
$
$...Define the design variables:
$
$DESVAR ID      LABEL   XINIT   XLB     XUB     DELXV
DESVAR  1       T-PLATE 0.15    0.001   10.0
DESVAR  2       HATDIM2 1.0     0.001   10.0
$
$...Relate the design variables to analysis model properties
$   (linear relations  so use DVPREL1)
$
$...Express shell thicknesses as functions of x1  x2:
$DVPREL1 ID     TYPE    PID     FID     PMIN    PMAX    C0              +
$+      DVIDD1  COEF1   DVID2   COEF2   ...
DVPREL1 1       PSHELL  1       T       0.01                            +DP1
+DP1    1       1.0
$
$...Express BOX THICKNESS as a function of x2:
DVPREL1 3       PBARL    3       DIM2
        2       0.1
$.   EXPRESS BOX OFFSET LOCATIONS AS A FUNCTION OF PLATE THICKNESS AND 
$    FIXED BOX DIMENSIONS 
$VCREL1 ID      TYPE    EID     CPNAME  CPMIN   CPMAX   C0              +
$+      DVIDD1  COEF1   DVID2   COEF2   ...
DVCREL1 10      CBAR    31      W3A                     1.5
        1       0.5
DVCREL1 20      CBAR    32      W3A                     1.5
        1       0.5
DVCREL1 30      CBAR    33      W3A                     1.5
        1       0.5
DVCREL1 40      CBAR    34      W3A                     1.5
        1       0.5
DVCREL1 50      CBAR    31      W3B                     1.5
        1       0.5
DVCREL1 60      CBAR    32      W3B                     1.5
        1       0.5
DVCREL1 70      CBAR    33      W3B                     1.5
        1       0.5
DVCREL1 80      CBAR    34      W3B                     1.5
        1       0.5
$...Identify the design responses:
$
$DRESP1 ID      LABEL   RTYPE   PTYPE   REGION  ATTA    ATTB    ATT1    +
$+      ATT2    ...
DRESP1   1      SBARA   STRESS  PBAR            7               3
DRESP1   2      SBARB   STRESS  PBAR            14              3
DRESP1   3      S13     STRESS  PSHELL          9               1
DRESP1   6      S16     STRESS  PSHELL          17              1
DRESP1  13      D1      DISP                    3               10302
DRESP1  14      D2      DISP                    3               10203
DRESP1  15      W       WEIGHT
$
$...Place bounds on the responses:
$
$DCONSTR DCID   RID     LALLOW  UALLOW
DCONSTR   10    1       -25000. 25000.
DCONSTR   10    2       -25000. 25000.
DCONSTR   10    3       -25000. 25000.
DCONSTR   10    6       -25000. 25000.
DCONSTR   20    13      -0.1    0.1
DCONSTR   30    14      -0.03   0.03
$
$DCONADD DCID   DC1     DC2     ...
$ summed constraint set for subcase 1
DCONADD   100   10      20      
$ summed constraint set for subcase 2
DCONADD   200   10      30      
$
$...Optional override of optimization parameters:
$
DOPTPRM IPRINT  7       DESMAX  20      DELP    0.5     P1      1       +
+       P2      15
$ (DELP=0.5 allows larger moves  thus overcoming constraint
$  violations quicker)
$
ENDDATA
